*SPEF "ieee 1481-1999"
*DESIGN "heichips25_template"
*DATE "17:17:25 Thursday August 21, 2025"
*VENDOR "The OpenROAD Project"
*PROGRAM "OpenROAD"
*VERSION "341650e72dad0dc8571822ff8c5d9c5e365327f7"
*DESIGN_FLOW "NAME_SCOPE LOCAL" "PIN_CAP NONE"
*DIVIDER /
*DELIMITER :
*BUS_DELIMITER []
*T_UNIT 1 NS
*C_UNIT 1 PF
*R_UNIT 1 OHM
*L_UNIT 1 HENRY

*NAME_MAP
*3 clk
*4 ena
*5 rst_n
*6 ui_in[0]
*7 ui_in[1]
*8 ui_in[2]
*9 ui_in[3]
*10 ui_in[4]
*11 ui_in[5]
*12 ui_in[6]
*13 ui_in[7]
*14 uio_in[0]
*15 uio_in[1]
*16 uio_in[2]
*17 uio_in[3]
*18 uio_in[4]
*19 uio_in[5]
*20 uio_in[6]
*21 uio_in[7]
*22 net33
*23 net34
*24 net35
*25 net36
*26 net37
*27 net38
*28 net39
*29 net40
*30 uio_out[0]
*31 uio_out[1]
*32 uio_out[2]
*33 uio_out[3]
*34 uio_out[4]
*35 uio_out[5]
*36 uio_out[6]
*37 uio_out[7]
*38 uo_out[0]
*39 uo_out[1]
*40 uo_out[2]
*41 uo_out[3]
*42 uo_out[4]
*43 uo_out[5]
*44 uo_out[6]
*45 uo_out[7]
*46 DP_1\.I_range\.data_plus_4\[6\]
*47 DP_1\.I_range\.out_data\[2\]
*48 DP_1\.I_range\.out_data\[3\]
*49 DP_1\.I_range\.out_data\[4\]
*50 DP_1\.I_range\.out_data\[5\]
*51 DP_1\.Q_range\.data_plus_4\[6\]
*52 DP_1\.Q_range\.out_data\[2\]
*53 DP_1\.Q_range\.out_data\[3\]
*54 DP_1\.Q_range\.out_data\[4\]
*55 DP_1\.Q_range\.out_data\[5\]
*56 DP_1\.matrix\[0\]
*57 DP_1\.matrix\[1\]
*58 DP_1\.matrix\[2\]
*59 DP_1\.matrix\[36\]
*60 DP_1\.matrix\[37\]
*61 DP_1\.matrix\[38\]
*62 DP_1\.matrix\[39\]
*63 DP_1\.matrix\[3\]
*64 DP_1\.matrix\[40\]
*65 DP_1\.matrix\[41\]
*66 DP_1\.matrix\[42\]
*67 DP_1\.matrix\[43\]
*68 DP_1\.matrix\[44\]
*69 DP_1\.matrix\[4\]
*70 DP_1\.matrix\[5\]
*71 DP_1\.matrix\[6\]
*72 DP_1\.matrix\[72\]
*73 DP_1\.matrix\[73\]
*74 DP_1\.matrix\[74\]
*75 DP_1\.matrix\[75\]
*76 DP_1\.matrix\[76\]
*77 DP_1\.matrix\[77\]
*78 DP_1\.matrix\[78\]
*79 DP_1\.matrix\[79\]
*80 DP_1\.matrix\[7\]
*81 DP_1\.matrix\[80\]
*82 DP_1\.matrix\[8\]
*83 DP_2\.matrix\[0\]
*84 DP_2\.matrix\[1\]
*85 DP_2\.matrix\[2\]
*86 DP_2\.matrix\[36\]
*87 DP_2\.matrix\[37\]
*88 DP_2\.matrix\[38\]
*89 DP_2\.matrix\[39\]
*90 DP_2\.matrix\[3\]
*91 DP_2\.matrix\[40\]
*92 DP_2\.matrix\[41\]
*93 DP_2\.matrix\[42\]
*94 DP_2\.matrix\[43\]
*95 DP_2\.matrix\[44\]
*96 DP_2\.matrix\[4\]
*97 DP_2\.matrix\[5\]
*98 DP_2\.matrix\[6\]
*99 DP_2\.matrix\[72\]
*100 DP_2\.matrix\[73\]
*101 DP_2\.matrix\[74\]
*102 DP_2\.matrix\[75\]
*103 DP_2\.matrix\[76\]
*104 DP_2\.matrix\[77\]
*105 DP_2\.matrix\[78\]
*106 DP_2\.matrix\[79\]
*107 DP_2\.matrix\[7\]
*108 DP_2\.matrix\[80\]
*109 DP_2\.matrix\[8\]
*110 DP_3\.I_range\.data_plus_4\[6\]
*111 DP_3\.I_range\.out_data\[2\]
*112 DP_3\.I_range\.out_data\[3\]
*113 DP_3\.I_range\.out_data\[4\]
*114 DP_3\.I_range\.out_data\[5\]
*115 DP_3\.Q_range\.data_plus_4\[6\]
*116 DP_3\.Q_range\.out_data\[2\]
*117 DP_3\.Q_range\.out_data\[3\]
*118 DP_3\.Q_range\.out_data\[4\]
*119 DP_3\.Q_range\.out_data\[5\]
*120 DP_3\.matrix\[0\]
*121 DP_3\.matrix\[1\]
*122 DP_3\.matrix\[2\]
*123 DP_3\.matrix\[36\]
*124 DP_3\.matrix\[37\]
*125 DP_3\.matrix\[38\]
*126 DP_3\.matrix\[39\]
*127 DP_3\.matrix\[3\]
*128 DP_3\.matrix\[40\]
*129 DP_3\.matrix\[41\]
*130 DP_3\.matrix\[42\]
*131 DP_3\.matrix\[43\]
*132 DP_3\.matrix\[44\]
*133 DP_3\.matrix\[4\]
*134 DP_3\.matrix\[5\]
*135 DP_3\.matrix\[6\]
*136 DP_3\.matrix\[72\]
*137 DP_3\.matrix\[73\]
*138 DP_3\.matrix\[74\]
*139 DP_3\.matrix\[75\]
*140 DP_3\.matrix\[76\]
*141 DP_3\.matrix\[77\]
*142 DP_3\.matrix\[78\]
*143 DP_3\.matrix\[79\]
*144 DP_3\.matrix\[7\]
*145 DP_3\.matrix\[80\]
*146 DP_3\.matrix\[8\]
*147 DP_4\.matrix\[0\]
*148 DP_4\.matrix\[1\]
*149 DP_4\.matrix\[2\]
*150 DP_4\.matrix\[36\]
*151 DP_4\.matrix\[37\]
*152 DP_4\.matrix\[38\]
*153 DP_4\.matrix\[39\]
*154 DP_4\.matrix\[3\]
*155 DP_4\.matrix\[40\]
*156 DP_4\.matrix\[41\]
*157 DP_4\.matrix\[42\]
*158 DP_4\.matrix\[43\]
*159 DP_4\.matrix\[44\]
*160 DP_4\.matrix\[4\]
*161 DP_4\.matrix\[5\]
*162 DP_4\.matrix\[6\]
*163 DP_4\.matrix\[72\]
*164 DP_4\.matrix\[73\]
*165 DP_4\.matrix\[74\]
*166 DP_4\.matrix\[75\]
*167 DP_4\.matrix\[76\]
*168 DP_4\.matrix\[77\]
*169 DP_4\.matrix\[78\]
*170 DP_4\.matrix\[79\]
*171 DP_4\.matrix\[7\]
*172 DP_4\.matrix\[80\]
*173 DP_4\.matrix\[8\]
*174 _0000_
*175 _0001_
*176 _0002_
*177 _0003_
*178 _0004_
*179 _0005_
*180 _0006_
*181 _0007_
*182 _0008_
*183 _0009_
*184 _0010_
*185 _0011_
*186 _0012_
*187 _0013_
*188 _0014_
*189 _0015_
*190 _0016_
*191 _0017_
*192 _0018_
*193 _0019_
*194 _0020_
*195 _0021_
*196 _0022_
*197 _0023_
*198 _0024_
*199 _0025_
*200 _0026_
*201 _0027_
*202 _0028_
*203 _0029_
*204 _0030_
*205 _0031_
*206 _0032_
*207 _0033_
*208 _0034_
*209 _0035_
*210 _0036_
*211 _0037_
*212 _0038_
*213 _0039_
*214 _0040_
*215 _0041_
*216 _0042_
*217 _0043_
*218 _0044_
*219 _0045_
*220 _0046_
*221 _0047_
*222 _0048_
*223 _0049_
*224 _0050_
*225 _0051_
*226 _0052_
*227 _0053_
*228 _0054_
*229 _0055_
*230 _0056_
*231 _0057_
*232 _0058_
*233 _0059_
*234 _0060_
*235 _0061_
*236 _0062_
*237 _0063_
*238 _0064_
*239 _0065_
*240 _0066_
*241 _0067_
*242 _0068_
*243 _0069_
*244 _0070_
*245 _0071_
*246 _0072_
*247 _0073_
*248 _0074_
*249 _0075_
*250 _0076_
*251 _0077_
*252 _0078_
*253 _0079_
*254 _0080_
*255 _0081_
*256 _0082_
*257 _0083_
*258 _0084_
*259 _0085_
*260 _0086_
*261 _0087_
*262 _0088_
*263 _0089_
*264 _0090_
*265 _0091_
*266 _0092_
*267 _0093_
*268 _0094_
*269 _0095_
*270 _0096_
*271 _0097_
*272 _0098_
*273 _0099_
*274 _0100_
*275 _0101_
*276 _0102_
*277 _0103_
*278 _0104_
*279 _0105_
*280 _0106_
*281 _0107_
*282 _0108_
*283 _0109_
*284 _0110_
*285 _0111_
*286 _0112_
*287 _0113_
*288 _0114_
*289 _0115_
*290 _0116_
*291 _0117_
*292 _0118_
*293 _0119_
*294 _0120_
*295 _0121_
*296 _0122_
*297 _0123_
*298 _0124_
*299 _0125_
*300 _0126_
*301 _0127_
*302 _0128_
*303 _0129_
*304 _0130_
*305 _0131_
*306 _0132_
*307 _0133_
*308 _0134_
*309 _0135_
*310 _0136_
*311 _0137_
*312 _0138_
*313 _0139_
*314 _0140_
*315 _0141_
*316 _0142_
*317 _0143_
*318 _0144_
*319 _0145_
*320 _0146_
*321 _0147_
*322 _0148_
*323 _0149_
*324 _0150_
*325 _0151_
*326 _0152_
*327 _0153_
*328 _0154_
*329 _0155_
*330 _0156_
*331 _0157_
*332 _0158_
*333 _0159_
*334 _0160_
*335 _0161_
*336 _0162_
*337 _0163_
*338 _0164_
*339 _0165_
*340 _0166_
*341 _0167_
*342 _0168_
*343 _0169_
*344 _0170_
*345 _0171_
*346 _0172_
*347 _0173_
*348 _0174_
*349 _0175_
*350 _0176_
*351 _0177_
*352 _0178_
*353 _0179_
*354 _0180_
*355 _0181_
*356 _0182_
*357 _0183_
*358 _0184_
*359 _0185_
*360 _0186_
*361 _0187_
*362 _0188_
*363 _0189_
*364 _0190_
*365 _0191_
*366 _0192_
*367 _0193_
*368 _0194_
*369 _0195_
*370 _0196_
*371 _0197_
*372 _0198_
*373 _0199_
*374 _0200_
*375 _0201_
*376 _0202_
*377 _0203_
*378 _0204_
*379 _0205_
*380 _0206_
*381 _0207_
*382 _0208_
*383 _0209_
*384 _0210_
*385 _0211_
*386 _0212_
*387 _0213_
*388 _0214_
*389 _0215_
*390 _0216_
*391 _0217_
*392 _0218_
*393 _0219_
*394 _0220_
*395 _0221_
*396 _0222_
*397 _0223_
*398 _0224_
*399 _0225_
*400 _0226_
*401 _0227_
*402 _0228_
*403 _0229_
*404 _0230_
*405 _0231_
*406 _0232_
*407 _0233_
*408 _0234_
*409 _0235_
*410 _0236_
*411 _0237_
*412 _0238_
*413 _0239_
*414 _0240_
*415 _0241_
*416 _0242_
*417 _0243_
*418 _0244_
*419 _0245_
*420 _0246_
*421 _0247_
*422 _0248_
*423 _0249_
*424 _0250_
*425 _0251_
*426 _0252_
*427 _0253_
*428 _0254_
*429 _0255_
*430 _0256_
*431 _0257_
*432 _0258_
*433 _0259_
*434 _0260_
*435 _0261_
*436 _0262_
*437 _0263_
*438 _0264_
*439 _0265_
*440 _0266_
*441 _0267_
*442 _0268_
*443 _0269_
*444 _0270_
*445 _0271_
*446 _0272_
*447 _0273_
*448 _0274_
*449 _0275_
*450 _0276_
*451 _0277_
*452 _0278_
*453 _0279_
*454 _0280_
*455 _0281_
*456 _0282_
*457 _0283_
*458 _0284_
*459 _0285_
*460 _0286_
*461 _0287_
*462 _0288_
*463 _0289_
*464 _0290_
*465 _0291_
*466 _0292_
*467 _0293_
*468 _0294_
*469 _0295_
*470 _0296_
*471 _0297_
*472 _0298_
*473 _0299_
*474 _0300_
*475 _0301_
*476 _0302_
*477 _0303_
*478 _0304_
*479 _0305_
*480 _0306_
*481 _0307_
*482 _0308_
*483 _0309_
*484 _0310_
*485 _0311_
*486 _0312_
*487 _0313_
*488 _0314_
*489 _0315_
*490 _0316_
*491 _0317_
*492 _0318_
*493 _0319_
*494 _0320_
*495 _0321_
*496 _0322_
*497 _0323_
*498 _0324_
*499 _0325_
*500 _0326_
*501 _0327_
*502 _0328_
*503 _0329_
*504 _0330_
*505 _0331_
*506 _0332_
*507 _0333_
*508 _0334_
*509 _0335_
*510 _0336_
*511 _0337_
*512 _0338_
*513 _0339_
*514 _0340_
*515 _0341_
*516 _0342_
*517 _0343_
*518 _0344_
*519 _0345_
*520 _0346_
*521 _0347_
*522 _0348_
*523 _0349_
*524 _0350_
*525 _0351_
*526 _0352_
*527 _0353_
*528 _0354_
*529 _0355_
*530 _0356_
*531 _0357_
*532 _0358_
*533 _0359_
*534 _0360_
*535 _0361_
*536 _0362_
*537 _0363_
*538 _0364_
*539 _0365_
*540 _0366_
*541 _0367_
*542 _0368_
*543 _0369_
*544 _0370_
*545 _0371_
*546 _0372_
*547 _0373_
*548 _0374_
*549 _0375_
*550 _0376_
*551 _0377_
*552 _0378_
*553 _0379_
*554 _0380_
*555 _0381_
*556 _0382_
*557 _0383_
*558 _0384_
*559 _0385_
*560 _0386_
*561 _0387_
*562 _0388_
*563 _0389_
*564 _0390_
*565 _0391_
*566 _0392_
*567 _0393_
*568 _0394_
*569 _0395_
*570 _0396_
*571 _0397_
*572 _0398_
*573 _0399_
*574 _0400_
*575 _0401_
*576 _0402_
*577 _0403_
*578 _0404_
*579 _0405_
*580 _0406_
*581 _0407_
*582 _0408_
*583 _0409_
*584 _0410_
*585 _0411_
*586 _0412_
*587 _0413_
*588 _0414_
*589 _0415_
*590 _0416_
*591 _0417_
*592 _0418_
*593 _0419_
*594 _0420_
*595 _0421_
*596 _0422_
*597 _0423_
*598 _0424_
*599 _0425_
*600 _0426_
*601 _0427_
*602 _0428_
*603 _0429_
*604 _0430_
*605 _0431_
*606 _0432_
*607 _0433_
*608 _0434_
*609 _0435_
*610 _0436_
*611 _0437_
*612 _0438_
*613 _0439_
*614 _0440_
*615 _0441_
*616 _0442_
*617 _0443_
*618 _0444_
*619 _0445_
*620 _0446_
*621 _0447_
*622 _0448_
*623 _0449_
*624 _0450_
*625 _0451_
*626 _0452_
*627 _0453_
*628 _0454_
*629 _0455_
*630 _0456_
*631 _0457_
*632 _0458_
*633 _0459_
*634 _0460_
*635 _0461_
*636 _0462_
*637 _0463_
*638 _0464_
*639 _0465_
*640 _0466_
*641 _0467_
*642 _0468_
*643 _0469_
*644 _0470_
*645 _0471_
*646 _0472_
*647 _0473_
*648 _0474_
*649 _0475_
*650 _0476_
*651 _0477_
*652 _0478_
*653 _0479_
*654 _0480_
*655 _0481_
*656 _0482_
*657 _0483_
*658 _0484_
*659 _0485_
*660 _0486_
*661 _0487_
*662 _0488_
*663 _0489_
*664 _0490_
*665 _0491_
*666 _0492_
*667 _0493_
*668 _0494_
*669 _0495_
*670 _0496_
*671 _0497_
*672 _0498_
*673 _0499_
*674 _0500_
*675 _0501_
*676 _0502_
*677 _0503_
*678 _0504_
*679 _0505_
*680 _0506_
*681 _0507_
*682 _0508_
*683 _0509_
*684 _0510_
*685 _0511_
*686 _0512_
*687 _0513_
*688 _0514_
*689 _0515_
*690 _0516_
*691 _0517_
*692 _0518_
*693 _0519_
*694 _0520_
*695 _0521_
*696 _0522_
*697 _0523_
*698 _0524_
*699 _0525_
*700 _0526_
*701 _0527_
*702 _0528_
*703 _0529_
*704 _0530_
*705 _0531_
*706 _0532_
*707 _0533_
*708 _0534_
*709 _0535_
*710 _0536_
*711 _0537_
*712 _0538_
*713 _0539_
*714 _0540_
*715 _0541_
*716 _0542_
*717 _0543_
*718 _0544_
*719 _0545_
*720 _0546_
*721 _0547_
*722 _0548_
*723 _0549_
*724 _0550_
*725 _0551_
*726 _0552_
*727 _0553_
*728 _0554_
*729 _0555_
*730 _0556_
*731 _0557_
*732 _0558_
*733 _0559_
*734 _0560_
*735 _0561_
*736 _0562_
*737 _0563_
*738 _0564_
*739 _0565_
*740 _0566_
*741 _0567_
*742 _0568_
*743 _0569_
*744 _0570_
*745 _0571_
*746 _0572_
*747 _0573_
*748 _0574_
*749 _0575_
*750 _0576_
*751 _0577_
*752 _0578_
*753 _0579_
*754 _0580_
*755 _0581_
*756 _0582_
*757 _0583_
*758 _0584_
*759 _0585_
*760 _0586_
*761 _0587_
*762 _0588_
*763 _0589_
*764 _0590_
*765 _0591_
*766 _0592_
*767 _0593_
*768 _0594_
*769 _0595_
*770 _0596_
*771 _0597_
*772 _0598_
*773 _0599_
*774 _0600_
*775 _0601_
*776 _0602_
*777 _0603_
*778 _0604_
*779 _0605_
*780 _0606_
*781 _0607_
*782 _0608_
*783 _0609_
*784 _0610_
*785 _0611_
*786 _0612_
*787 _0613_
*788 _0614_
*789 _0615_
*790 _0616_
*791 _0617_
*792 _0618_
*793 _0619_
*794 _0620_
*795 _0621_
*796 _0622_
*797 _0623_
*798 _0624_
*799 _0625_
*800 _0626_
*801 _0627_
*802 _0628_
*803 _0629_
*804 _0630_
*805 _0631_
*806 _0632_
*807 _0633_
*808 _0634_
*809 _0635_
*810 _0636_
*811 _0637_
*812 _0638_
*813 _0639_
*814 _0640_
*815 _0641_
*816 _0642_
*817 _0643_
*818 _0644_
*819 _0645_
*820 _0646_
*821 _0647_
*822 _0648_
*823 _0649_
*824 _0650_
*825 _0651_
*826 _0652_
*827 _0653_
*828 _0654_
*829 _0655_
*830 _0656_
*831 _0657_
*832 _0658_
*833 _0659_
*834 _0660_
*835 _0661_
*836 _0662_
*837 _0663_
*838 _0664_
*839 _0665_
*840 _0666_
*841 _0667_
*842 _0668_
*843 _0669_
*844 _0670_
*845 _0671_
*846 _0672_
*847 _0673_
*848 _0674_
*849 _0675_
*850 _0676_
*851 _0677_
*852 _0678_
*853 _0679_
*854 _0680_
*855 _0681_
*856 _0682_
*857 _0683_
*858 _0684_
*859 _0685_
*860 _0686_
*861 _0687_
*862 _0688_
*863 _0689_
*864 _0690_
*865 _0691_
*866 _0692_
*867 _0693_
*868 _0694_
*869 _0695_
*870 _0696_
*871 _0697_
*872 _0698_
*873 _0699_
*874 _0700_
*875 _0701_
*876 _0702_
*877 _0703_
*878 _0704_
*879 _0705_
*880 _0706_
*881 _0707_
*882 _0708_
*883 _0709_
*884 _0710_
*885 _0711_
*886 _0712_
*887 _0713_
*888 _0714_
*889 _0715_
*890 _0716_
*891 _0717_
*892 _0718_
*893 _0719_
*894 _0720_
*895 _0721_
*896 _0722_
*897 _0723_
*898 _0724_
*899 _0725_
*900 _0726_
*901 _0727_
*902 _0728_
*903 _0729_
*904 _0730_
*905 _0731_
*906 _0732_
*907 _0733_
*908 _0734_
*909 _0735_
*910 _0736_
*911 _0737_
*912 _0738_
*913 _0739_
*914 _0740_
*915 _0741_
*916 _0742_
*917 _0743_
*918 _0744_
*919 _0745_
*920 _0746_
*921 _0747_
*922 _0748_
*923 _0749_
*924 _0750_
*925 _0751_
*926 _0752_
*927 _0753_
*928 _0754_
*929 _0755_
*930 _0756_
*931 _0757_
*932 _0758_
*933 _0759_
*934 _0760_
*935 _0761_
*936 _0762_
*937 _0763_
*938 _0764_
*939 _0765_
*940 _0766_
*941 _0767_
*942 _0768_
*943 _0769_
*944 _0770_
*945 _0771_
*946 _0772_
*947 _0773_
*948 _0774_
*949 _0775_
*950 _0776_
*951 _0777_
*952 _0778_
*953 _0779_
*954 _0780_
*955 _0781_
*956 _0782_
*957 _0783_
*958 _0784_
*959 _0785_
*960 _0786_
*961 _0787_
*962 _0788_
*963 _0789_
*964 _0790_
*965 _0791_
*966 _0792_
*967 _0793_
*968 _0794_
*969 _0795_
*970 _0796_
*971 _0797_
*972 _0798_
*973 _0799_
*974 _0800_
*975 _0801_
*976 _0802_
*977 _0803_
*978 _0804_
*979 _0805_
*980 _0806_
*981 _0807_
*982 _0808_
*983 _0809_
*984 _0810_
*985 _0811_
*986 _0812_
*987 _0813_
*988 _0814_
*989 _0815_
*990 _0816_
*991 _0817_
*992 _0818_
*993 _0819_
*994 _0820_
*995 _0821_
*996 _0822_
*997 _0823_
*998 _0824_
*999 _0825_
*1000 _0826_
*1001 _0827_
*1002 _0828_
*1003 _0829_
*1004 _0830_
*1005 _0831_
*1006 _0832_
*1007 _0833_
*1008 _0834_
*1009 _0835_
*1010 _0836_
*1011 _0837_
*1012 _0838_
*1013 _0839_
*1014 _0840_
*1015 _0841_
*1016 _0842_
*1017 _0843_
*1018 _0844_
*1019 _0845_
*1020 _0846_
*1021 _0847_
*1022 _0848_
*1023 _0849_
*1024 _0850_
*1025 _0851_
*1026 _0852_
*1027 _0853_
*1028 _0854_
*1029 _0855_
*1030 _0856_
*1031 _0857_
*1032 _0858_
*1033 _0859_
*1034 _0860_
*1035 _0861_
*1036 _0862_
*1037 _0863_
*1038 _0864_
*1039 _0865_
*1040 _0866_
*1041 _0867_
*1042 _0868_
*1043 _0869_
*1044 _0870_
*1045 _0871_
*1046 _0872_
*1047 _0873_
*1048 _0874_
*1049 _0875_
*1050 _0876_
*1051 _0877_
*1052 _0878_
*1053 _0879_
*1054 _0880_
*1055 _0881_
*1056 _0882_
*1057 _0883_
*1058 _0884_
*1059 _0885_
*1060 _0886_
*1061 _0887_
*1062 _0888_
*1063 _0889_
*1064 _0890_
*1065 _0891_
*1066 _0892_
*1067 _0893_
*1068 _0894_
*1069 _0895_
*1070 _0896_
*1071 _0897_
*1072 _0898_
*1073 _0899_
*1074 _0900_
*1075 _0901_
*1076 _0902_
*1077 _0903_
*1078 _0904_
*1079 _0905_
*1080 _0906_
*1081 _0907_
*1082 _0908_
*1083 _0909_
*1084 _0910_
*1085 _0911_
*1086 _0912_
*1087 _0913_
*1088 _0914_
*1089 _0915_
*1090 _0916_
*1091 _0917_
*1092 _0918_
*1093 _0919_
*1094 _0920_
*1095 _0921_
*1096 _0922_
*1097 _0923_
*1098 _0924_
*1099 _0925_
*1100 _0926_
*1101 _0927_
*1102 _0928_
*1103 _0929_
*1104 _0930_
*1105 _0931_
*1106 _0932_
*1107 _0933_
*1108 _0934_
*1109 _0935_
*1110 _0936_
*1111 _0937_
*1112 _0938_
*1113 _0939_
*1114 _0940_
*1115 _0941_
*1116 _0942_
*1117 _0943_
*1118 _0944_
*1119 _0945_
*1120 _0946_
*1121 _0947_
*1122 _0948_
*1123 _0949_
*1124 _0950_
*1125 _0951_
*1126 _0952_
*1127 _0953_
*1128 _0954_
*1129 _0955_
*1130 _0956_
*1131 _0957_
*1132 _0958_
*1133 _0959_
*1134 _0960_
*1135 _0961_
*1136 _0962_
*1137 _0963_
*1138 _0964_
*1139 _0965_
*1140 _0966_
*1141 _0967_
*1142 _0968_
*1143 _0969_
*1144 _0970_
*1145 _0971_
*1146 _0972_
*1147 _0973_
*1148 _0974_
*1149 _0975_
*1150 _0976_
*1151 _0977_
*1152 _0978_
*1153 _0979_
*1154 _0980_
*1155 _0981_
*1156 _0982_
*1157 _0983_
*1158 _0984_
*1159 _0985_
*1160 _0986_
*1161 _0987_
*1162 _0988_
*1163 _0989_
*1164 _0990_
*1165 _0991_
*1166 _0992_
*1167 _0993_
*1168 _0994_
*1169 _0995_
*1170 _0996_
*1171 _0997_
*1172 _0998_
*1173 _0999_
*1174 _1000_
*1175 _1001_
*1176 _1002_
*1177 _1003_
*1178 _1004_
*1179 _1005_
*1180 _1006_
*1181 _1007_
*1182 _1008_
*1183 _1009_
*1184 _1010_
*1185 _1011_
*1186 _1012_
*1187 _1013_
*1188 _1014_
*1189 _1015_
*1190 _1016_
*1191 _1017_
*1192 _1018_
*1193 _1019_
*1194 _1020_
*1195 _1021_
*1196 _1022_
*1197 _1023_
*1198 _1024_
*1199 _1025_
*1200 _1026_
*1201 _1027_
*1202 _1028_
*1203 _1029_
*1204 _1030_
*1205 _1031_
*1206 _1032_
*1207 _1033_
*1208 _1034_
*1209 _1035_
*1210 _1036_
*1211 _1037_
*1212 _1038_
*1213 _1039_
*1214 _1040_
*1215 _1041_
*1216 _1042_
*1217 _1043_
*1218 _1044_
*1219 _1045_
*1220 _1046_
*1221 _1047_
*1222 _1048_
*1223 _1049_
*1224 _1050_
*1225 _1051_
*1226 _1052_
*1227 _1053_
*1228 _1054_
*1229 _1055_
*1230 _1056_
*1231 _1057_
*1232 _1058_
*1233 _1059_
*1234 _1060_
*1235 _1061_
*1236 _1062_
*1237 _1063_
*1238 _1064_
*1239 _1065_
*1240 _1066_
*1241 _1067_
*1242 _1068_
*1243 _1069_
*1244 _1070_
*1245 _1071_
*1246 _1072_
*1247 _1073_
*1248 _1074_
*1249 _1075_
*1250 _1076_
*1251 _1077_
*1252 _1078_
*1253 _1079_
*1254 _1080_
*1255 _1081_
*1256 _1082_
*1257 _1083_
*1258 _1084_
*1259 _1085_
*1260 _1086_
*1261 _1087_
*1262 _1088_
*1263 _1089_
*1264 _1090_
*1265 _1091_
*1266 _1092_
*1267 _1093_
*1268 _1094_
*1269 _1095_
*1270 _1096_
*1271 _1097_
*1272 _1098_
*1273 _1099_
*1274 _1100_
*1275 _1101_
*1276 _1102_
*1277 _1103_
*1278 _1104_
*1279 _1105_
*1280 _1106_
*1281 _1107_
*1282 _1108_
*1283 _1109_
*1284 _1110_
*1285 _1111_
*1286 _1112_
*1287 _1113_
*1288 _1114_
*1289 _1115_
*1290 _1116_
*1291 _1117_
*1292 _1118_
*1293 _1119_
*1294 _1120_
*1295 _1121_
*1296 _1122_
*1297 _1123_
*1298 _1124_
*1299 _1125_
*1300 _1126_
*1301 _1127_
*1302 _1128_
*1303 _1129_
*1304 _1130_
*1305 _1131_
*1306 _1132_
*1307 _1133_
*1308 _1134_
*1309 _1135_
*1310 _1136_
*1311 _1137_
*1312 _1138_
*1313 _1139_
*1314 _1140_
*1315 _1141_
*1316 _1142_
*1317 _1143_
*1318 _1144_
*1319 _1145_
*1320 _1146_
*1321 _1147_
*1322 _1148_
*1323 _1149_
*1324 _1150_
*1325 _1151_
*1326 _1152_
*1327 _1153_
*1328 _1154_
*1329 _1155_
*1330 _1156_
*1331 _1157_
*1332 _1158_
*1333 _1159_
*1334 _1160_
*1335 _1161_
*1336 _1162_
*1337 _1163_
*1338 _1164_
*1339 _1165_
*1340 _1166_
*1341 _1167_
*1342 _1168_
*1343 _1169_
*1344 _1170_
*1345 _1171_
*1346 _1172_
*1347 _1173_
*1348 _1174_
*1349 _1175_
*1350 _1176_
*1351 _1177_
*1352 _1178_
*1353 _1179_
*1354 _1180_
*1355 _1181_
*1356 _1182_
*1357 _1183_
*1358 _1184_
*1359 _1185_
*1360 _1186_
*1361 _1187_
*1362 _1188_
*1363 _1189_
*1364 _1190_
*1365 _1191_
*1366 _1192_
*1367 _1193_
*1368 _1194_
*1369 _1195_
*1370 _1196_
*1371 _1197_
*1372 _1198_
*1373 _1199_
*1374 _1200_
*1375 _1201_
*1376 _1202_
*1377 _1203_
*1378 _1204_
*1379 _1205_
*1380 _1206_
*1381 _1207_
*1382 _1208_
*1383 _1209_
*1384 _1210_
*1385 _1211_
*1386 _1212_
*1387 _1213_
*1388 _1214_
*1389 _1215_
*1390 _1216_
*1391 _1217_
*1392 _1218_
*1393 _1219_
*1394 _1220_
*1395 _1221_
*1396 _1222_
*1397 _1223_
*1398 _1224_
*1399 _1225_
*1400 _1226_
*1401 _1227_
*1402 _1228_
*1403 _1229_
*1404 _1230_
*1405 _1231_
*1406 _1232_
*1407 _1233_
*1408 _1234_
*1409 _1235_
*1410 _1236_
*1411 _1237_
*1412 _1238_
*1413 _1239_
*1414 _1240_
*1415 _1241_
*1416 _1242_
*1417 _1243_
*1418 _1244_
*1419 _1245_
*1420 _1246_
*1421 _1247_
*1422 _1248_
*1423 _1249_
*1424 _1250_
*1425 _1251_
*1426 _1252_
*1427 _1253_
*1428 _1254_
*1429 _1255_
*1430 _1256_
*1431 _1257_
*1432 _1258_
*1433 _1259_
*1434 _1260_
*1435 _1261_
*1436 _1262_
*1437 _1263_
*1438 _1264_
*1439 _1265_
*1440 _1266_
*1441 _1267_
*1442 _1268_
*1443 _1269_
*1444 _1270_
*1445 _1271_
*1446 _1272_
*1447 _1273_
*1448 _1274_
*1449 _1275_
*1450 _1276_
*1451 _1277_
*1452 _1278_
*1453 _1279_
*1454 _1280_
*1455 _1281_
*1456 _1282_
*1457 _1283_
*1458 _1284_
*1459 _1285_
*1460 _1286_
*1461 _1287_
*1462 _1288_
*1463 _1289_
*1464 _1290_
*1465 _1291_
*1466 _1292_
*1467 _1293_
*1468 _1294_
*1469 _1295_
*1470 _1296_
*1471 _1297_
*1472 _1298_
*1473 _1299_
*1474 _1300_
*1475 _1301_
*1476 _1302_
*1477 _1303_
*1478 _1304_
*1479 _1305_
*1480 _1306_
*1481 _1307_
*1482 _1308_
*1483 _1309_
*1484 _1310_
*1485 _1311_
*1486 _1312_
*1487 _1313_
*1488 _1314_
*1489 _1315_
*1490 _1316_
*1491 _1317_
*1492 _1318_
*1493 _1319_
*1494 _1320_
*1495 _1321_
*1496 _1322_
*1497 _1323_
*1498 _1324_
*1499 _1325_
*1500 _1326_
*1501 _1327_
*1502 _1328_
*1503 _1329_
*1504 _1330_
*1505 _1331_
*1506 _1332_
*1507 _1333_
*1508 _1334_
*1509 _1335_
*1510 _1336_
*1511 _1337_
*1512 _1338_
*1513 _1339_
*1514 _1340_
*1515 _1341_
*1516 _1342_
*1517 _1343_
*1518 _1344_
*1519 _1345_
*1520 _1346_
*1521 _1347_
*1522 _1348_
*1523 _1349_
*1524 _1350_
*1525 _1351_
*1526 _1352_
*1527 _1353_
*1528 _1354_
*1529 _1355_
*1530 _1356_
*1531 _1357_
*1532 _1358_
*1533 _1359_
*1534 _1360_
*1535 _1361_
*1536 _1362_
*1537 _1363_
*1538 _1364_
*1539 _1365_
*1540 _1366_
*1541 _1367_
*1542 _1368_
*1543 _1369_
*1544 _1370_
*1545 _1371_
*1546 _1372_
*1547 _1373_
*1548 _1374_
*1549 _1375_
*1550 _1376_
*1551 _1377_
*1552 _1378_
*1553 _1379_
*1554 _1380_
*1555 _1381_
*1556 _1382_
*1557 _1383_
*1558 _1384_
*1559 _1385_
*1560 _1386_
*1561 _1387_
*1562 _1388_
*1563 _1389_
*1564 _1390_
*1565 _1391_
*1566 _1392_
*1567 _1393_
*1568 _1394_
*1569 _1395_
*1570 _1396_
*1571 _1397_
*1572 _1398_
*1573 _1399_
*1574 _1400_
*1575 _1401_
*1576 _1402_
*1577 _1403_
*1578 _1404_
*1579 _1405_
*1580 _1406_
*1581 _1407_
*1582 _1408_
*1583 _1409_
*1584 _1410_
*1585 _1411_
*1586 _1412_
*1587 _1413_
*1588 _1414_
*1589 _1415_
*1590 _1416_
*1591 _1417_
*1592 _1418_
*1593 _1419_
*1594 _1420_
*1595 _1421_
*1596 _1422_
*1597 _1423_
*1598 _1424_
*1599 _1425_
*1600 _1426_
*1601 _1427_
*1602 _1428_
*1603 _1429_
*1604 _1430_
*1605 _1431_
*1606 _1432_
*1607 _1433_
*1608 _1434_
*1609 _1435_
*1610 _1436_
*1611 _1437_
*1612 _1438_
*1613 _1439_
*1614 _1440_
*1615 _1441_
*1616 _1442_
*1617 _1443_
*1618 _1444_
*1619 _1445_
*1620 _1446_
*1621 _1447_
*1622 _1448_
*1623 _1449_
*1624 _1450_
*1625 _1451_
*1626 _1452_
*1627 _1453_
*1628 _1454_
*1629 _1455_
*1630 _1456_
*1631 _1457_
*1632 _1458_
*1633 _1459_
*1634 _1460_
*1635 _1461_
*1636 _1462_
*1637 _1463_
*1638 _1464_
*1639 _1465_
*1640 _1466_
*1641 _1467_
*1642 _1468_
*1643 _1469_
*1644 _1470_
*1645 _1471_
*1646 _1472_
*1647 _1473_
*1648 _1474_
*1649 _1475_
*1650 _1476_
*1651 _1477_
*1652 _1478_
*1653 _1479_
*1654 _1480_
*1655 _1481_
*1656 _1482_
*1657 _1483_
*1658 _1484_
*1659 _1485_
*1660 _1486_
*1661 _1487_
*1662 _1488_
*1663 _1489_
*1664 _1490_
*1665 _1491_
*1666 _1492_
*1667 _1493_
*1668 _1494_
*1669 _1495_
*1670 _1496_
*1671 _1497_
*1672 _1498_
*1673 _1499_
*1674 _1500_
*1675 _1501_
*1676 _1502_
*1677 _1503_
*1678 _1504_
*1679 _1505_
*1680 _1506_
*1681 _1507_
*1682 _1508_
*1683 _1509_
*1684 _1510_
*1685 _1511_
*1686 _1512_
*1687 _1513_
*1688 _1514_
*1689 _1515_
*1690 _1516_
*1691 _1517_
*1692 _1518_
*1693 _1519_
*1694 _1520_
*1695 _1521_
*1696 _1522_
*1697 _1523_
*1698 _1524_
*1699 _1525_
*1700 _1526_
*1701 _1527_
*1702 _1528_
*1703 _1529_
*1704 _1530_
*1705 _1531_
*1706 _1532_
*1707 _1533_
*1708 _1534_
*1709 _1535_
*1710 _1536_
*1711 _1537_
*1712 _1538_
*1713 _1539_
*1714 _1540_
*1715 _1541_
*1716 _1542_
*1717 _1543_
*1718 _1544_
*1719 _1545_
*1720 _1546_
*1721 _1547_
*1722 _1548_
*1723 _1549_
*1724 _1550_
*1725 _1551_
*1726 _1552_
*1727 _1553_
*1728 _1554_
*1729 _1555_
*1730 _1556_
*1731 _1557_
*1732 _1558_
*1733 _1559_
*1734 _1560_
*1735 _1561_
*1736 _1562_
*1737 _1563_
*1738 _1564_
*1739 _1565_
*1740 _1566_
*1741 _1567_
*1742 _1568_
*1743 _1569_
*1744 _1570_
*1745 _1571_
*1746 _1572_
*1747 _1573_
*1748 _1574_
*1749 _1575_
*1750 _1576_
*1751 _1577_
*1752 _1578_
*1753 _1579_
*1754 _1580_
*1755 _1581_
*1756 _1582_
*1757 _1583_
*1758 _1584_
*1759 _1585_
*1760 _1586_
*1761 _1587_
*1762 _1588_
*1763 _1589_
*1764 _1590_
*1765 _1591_
*1766 _1592_
*1767 _1593_
*1768 _1594_
*1769 _1595_
*1770 _1596_
*1771 _1597_
*1772 _1598_
*1773 _1599_
*1774 _1600_
*1775 _1601_
*1776 _1602_
*1777 _1603_
*1778 _1604_
*1779 _1605_
*1780 _1606_
*1781 _1607_
*1782 _1608_
*1783 _1609_
*1784 _1610_
*1785 _1611_
*1786 _1612_
*1787 _1613_
*1788 _1614_
*1789 _1615_
*1790 _1616_
*1791 _1617_
*1792 _1618_
*1793 _1619_
*1794 _1620_
*1795 _1621_
*1796 _1622_
*1797 _1623_
*1798 _1624_
*1799 _1625_
*1800 _1626_
*1801 _1627_
*1802 _1628_
*1803 _1629_
*1804 _1630_
*1805 _1631_
*1806 _1632_
*1807 _1633_
*1808 _1634_
*1809 _1635_
*1810 _1636_
*1811 _1637_
*1812 _1638_
*1813 _1639_
*1814 _1640_
*1815 _1641_
*1816 _1642_
*1817 _1643_
*1818 _1644_
*1819 _1645_
*1820 _1646_
*1821 _1647_
*1822 _1648_
*1823 _1649_
*1824 _1650_
*1825 _1651_
*1826 _1652_
*1827 _1653_
*1828 _1654_
*1829 _1655_
*1830 _1656_
*1831 _1657_
*1832 _1658_
*1833 _1659_
*1834 _1660_
*1835 _1661_
*1836 _1662_
*1837 _1663_
*1838 _1664_
*1839 _1665_
*1840 _1666_
*1841 _1667_
*1842 _1668_
*1843 _1669_
*1844 _1670_
*1845 _1671_
*1846 _1672_
*1847 _1673_
*1848 _1674_
*1849 _1675_
*1850 _1676_
*1851 _1677_
*1852 _1678_
*1853 _1679_
*1854 _1680_
*1855 _1681_
*1856 _1682_
*1857 _1683_
*1858 _1684_
*1859 _1685_
*1860 _1686_
*1861 _1687_
*1862 _1688_
*1863 _1689_
*1864 _1690_
*1865 _1691_
*1866 _1692_
*1867 _1693_
*1868 _1694_
*1869 _1695_
*1870 _1696_
*1871 _1697_
*1872 _1698_
*1873 _1699_
*1874 _1700_
*1875 _1701_
*1876 _1702_
*1877 _1703_
*1878 _1704_
*1879 _1705_
*1880 _1706_
*1881 _1707_
*1882 _1708_
*1883 _1709_
*1884 _1710_
*1885 _1711_
*1886 _1712_
*1887 _1713_
*1888 _1714_
*1889 _1715_
*1890 _1716_
*1891 _1717_
*1892 _1718_
*1893 _1719_
*1894 _1720_
*1895 _1721_
*1896 _1722_
*1897 _1723_
*1898 _1724_
*1899 _1725_
*1900 _1726_
*1901 _1727_
*1902 _1728_
*1903 _1729_
*1904 _1730_
*1905 _1731_
*1906 _1732_
*1907 _1733_
*1908 _1734_
*1909 _1735_
*1910 _1736_
*1911 _1737_
*1912 _1738_
*1913 _1739_
*1914 _1740_
*1915 _1741_
*1916 _1742_
*1917 _1743_
*1918 _1744_
*1919 _1745_
*1920 _1746_
*1921 _1747_
*1922 _1748_
*1923 _1749_
*1924 _1750_
*1925 _1751_
*1926 _1752_
*1927 _1753_
*1928 _1754_
*1929 _1755_
*1930 _1756_
*1931 _1757_
*1932 _1758_
*1933 _1759_
*1934 _1760_
*1935 _1761_
*1936 _1762_
*1937 _1763_
*1938 _1764_
*1939 _1765_
*1940 _1766_
*1941 _1767_
*1942 _1768_
*1943 _1769_
*1944 _1770_
*1945 _1771_
*1946 _1772_
*1947 _1773_
*1948 _1774_
*1949 _1775_
*1950 _1776_
*1951 _1777_
*1952 _1778_
*1953 _1779_
*1954 _1780_
*1955 _1781_
*1956 _1782_
*1957 _1783_
*1958 _1784_
*1959 _1785_
*1960 _1786_
*1961 _1787_
*1962 _1788_
*1963 _1789_
*1964 _1790_
*1965 _1791_
*1966 _1792_
*1967 _1793_
*1968 _1794_
*1969 _1795_
*1970 _1796_
*1971 _1797_
*1972 _1798_
*1973 _1799_
*1974 _1800_
*1975 _1801_
*1976 _1802_
*1977 _1803_
*1978 _1804_
*1979 _1805_
*1980 _1806_
*1981 _1807_
*1982 _1808_
*1983 _1809_
*1984 _1810_
*1985 _1811_
*1986 _1812_
*1987 _1813_
*1988 _1814_
*1989 _1815_
*1990 _1816_
*1991 _1817_
*1992 _1818_
*1993 _1819_
*1994 _1820_
*1995 _1821_
*1996 _1822_
*1997 _1823_
*1998 _1824_
*1999 _1825_
*2000 _1826_
*2001 _1827_
*2002 _1828_
*2003 _1829_
*2004 _1830_
*2005 _1831_
*2006 _1832_
*2007 _1833_
*2008 _1834_
*2009 _1835_
*2010 _1836_
*2011 _1837_
*2012 _1838_
*2013 _1839_
*2014 _1840_
*2015 _1841_
*2016 _1842_
*2017 _1843_
*2018 _1844_
*2019 _1845_
*2020 _1846_
*2021 _1847_
*2022 _1848_
*2023 _1849_
*2024 _1850_
*2025 _1851_
*2026 _1852_
*2027 _1853_
*2028 _1854_
*2029 _1855_
*2030 _1856_
*2031 _1857_
*2032 _1858_
*2033 _1859_
*2034 _1860_
*2035 _1861_
*2036 _1862_
*2037 _1863_
*2038 _1864_
*2039 _1865_
*2040 _1866_
*2041 _1867_
*2042 _1868_
*2043 _1869_
*2044 _1870_
*2045 _1871_
*2046 _1872_
*2047 _1873_
*2048 _1874_
*2049 _1875_
*2050 _1876_
*2051 _1877_
*2052 _1878_
*2053 _1879_
*2054 _1880_
*2055 _1881_
*2056 _1882_
*2057 _1883_
*2058 _1884_
*2059 _1885_
*2060 _1886_
*2061 _1887_
*2062 _1888_
*2063 _1889_
*2064 _1890_
*2065 _1891_
*2066 _1892_
*2067 _1893_
*2068 _1894_
*2069 _1895_
*2070 _1896_
*2071 _1897_
*2072 _1898_
*2073 _1899_
*2074 _1900_
*2075 _1901_
*2076 _1902_
*2077 _1903_
*2078 _1904_
*2079 _1905_
*2080 _1906_
*2081 _1907_
*2082 _1908_
*2083 _1909_
*2084 _1910_
*2085 _1911_
*2086 _1912_
*2087 _1913_
*2088 _1914_
*2089 _1915_
*2090 _1916_
*2091 _1917_
*2092 _1918_
*2093 _1919_
*2094 _1920_
*2095 _1921_
*2096 _1922_
*2097 _1923_
*2098 _1924_
*2099 _1925_
*2100 _1926_
*2101 _1927_
*2102 _1928_
*2103 _1929_
*2104 _1930_
*2105 _1931_
*2106 _1932_
*2107 _1933_
*2108 _1934_
*2109 _1935_
*2110 _1936_
*2111 _1937_
*2112 _1938_
*2113 _1939_
*2114 _1940_
*2115 _1941_
*2116 _1942_
*2117 _1943_
*2118 _1944_
*2119 _1945_
*2120 _1946_
*2121 _1947_
*2122 _1948_
*2123 _1949_
*2124 _1950_
*2125 _1951_
*2126 _1952_
*2127 _1953_
*2128 _1954_
*2129 _1955_
*2130 _1956_
*2131 _1957_
*2132 _1958_
*2133 _1959_
*2134 _1960_
*2135 _1961_
*2136 _1962_
*2137 _1963_
*2138 _1964_
*2139 _1965_
*2140 _1966_
*2141 _1967_
*2142 _1968_
*2143 _1969_
*2144 _1970_
*2145 _1971_
*2146 _1972_
*2147 _1973_
*2148 _1974_
*2149 _1975_
*2150 _1976_
*2151 _1977_
*2152 _1978_
*2153 _1979_
*2154 _1980_
*2155 _1981_
*2156 _1982_
*2157 _1983_
*2158 _1984_
*2159 _1985_
*2160 _1986_
*2161 _1987_
*2162 _1988_
*2163 _1989_
*2164 _1990_
*2165 _1991_
*2166 _1992_
*2167 _1993_
*2168 _1994_
*2169 _1995_
*2170 _1996_
*2171 _1997_
*2172 _1998_
*2173 _1999_
*2174 _2000_
*2175 _2001_
*2176 _2002_
*2177 _2003_
*2178 _2004_
*2179 _2005_
*2180 _2006_
*2181 _2007_
*2182 _2008_
*2183 _2009_
*2184 _2010_
*2185 _2011_
*2186 _2012_
*2187 _2013_
*2188 _2014_
*2189 _2015_
*2190 _2016_
*2191 _2017_
*2192 _2018_
*2193 _2019_
*2194 _2020_
*2195 _2021_
*2196 _2022_
*2197 _2023_
*2198 _2024_
*2199 _2025_
*2200 _2026_
*2201 _2027_
*2202 _2028_
*2203 _2029_
*2204 _2030_
*2205 _2031_
*2206 _2032_
*2207 _2033_
*2208 _2034_
*2209 _2035_
*2210 _2036_
*2211 _2037_
*2212 _2038_
*2213 _2039_
*2214 _2040_
*2215 _2041_
*2216 _2042_
*2217 _2043_
*2218 _2044_
*2219 _2045_
*2220 _2046_
*2221 _2047_
*2222 _2048_
*2223 _2049_
*2224 _2050_
*2225 _2051_
*2226 _2052_
*2227 _2053_
*2228 _2054_
*2229 _2055_