*SPEF "ieee 1481-1999"
*DESIGN "heichips25_template"
*DATE "15:26:07 Tuesday August 26, 2025"
*VENDOR "The OpenROAD Project"
*PROGRAM "OpenROAD"
*VERSION "341650e72dad0dc8571822ff8c5d9c5e365327f7"
*DESIGN_FLOW "NAME_SCOPE LOCAL" "PIN_CAP NONE"
*DIVIDER /
*DELIMITER :
*BUS_DELIMITER []
*T_UNIT 1 NS
*C_UNIT 1 PF
*R_UNIT 1 OHM
*L_UNIT 1 HENRY

*NAME_MAP
*3 clk
*4 ena
*5 rst_n
*6 ui_in[0]
*7 ui_in[1]
*8 ui_in[2]
*9 ui_in[3]
*10 ui_in[4]
*11 ui_in[5]
*12 ui_in[6]
*13 ui_in[7]
*14 uio_in[0]
*15 uio_in[1]
*16 uio_in[2]
*17 uio_in[3]
*18 uio_in[4]
*19 uio_in[5]
*20 uio_in[6]
*21 uio_in[7]
*22 net33
*23 net34
*24 net35
*25 net36
*26 net37
*27 net38
*28 net39
*29 net40
*30 uio_out[0]
*31 uio_out[1]
*32 uio_out[2]
*33 uio_out[3]
*34 uio_out[4]
*35 uio_out[5]
*36 uio_out[6]
*37 uio_out[7]
*38 uo_out[0]
*39 uo_out[1]
*40 uo_out[2]
*41 uo_out[3]
*42 uo_out[4]
*43 uo_out[5]
*44 uo_out[6]
*45 uo_out[7]
*46 DP_1\.I_range\.data_plus_4\[6\]
*47 DP_1\.I_range\.out_data\[2\]
*48 DP_1\.I_range\.out_data\[3\]
*49 DP_1\.I_range\.out_data\[4\]
*50 DP_1\.I_range\.out_data\[5\]
*51 DP_1\.I_range\.out_data\[6\]
*52 DP_1\.Q_range\.data_plus_4\[6\]
*53 DP_1\.Q_range\.out_data\[2\]
*54 DP_1\.Q_range\.out_data\[3\]
*55 DP_1\.Q_range\.out_data\[4\]
*56 DP_1\.Q_range\.out_data\[5\]
*57 DP_1\.Q_range\.out_data\[6\]
*58 DP_1\.matrix\[0\]
*59 DP_1\.matrix\[1\]
*60 DP_1\.matrix\[2\]
*61 DP_1\.matrix\[36\]
*62 DP_1\.matrix\[37\]
*63 DP_1\.matrix\[38\]
*64 DP_1\.matrix\[39\]
*65 DP_1\.matrix\[3\]
*66 DP_1\.matrix\[40\]
*67 DP_1\.matrix\[41\]
*68 DP_1\.matrix\[42\]
*69 DP_1\.matrix\[43\]
*70 DP_1\.matrix\[44\]
*71 DP_1\.matrix\[4\]
*72 DP_1\.matrix\[5\]
*73 DP_1\.matrix\[6\]
*74 DP_1\.matrix\[72\]
*75 DP_1\.matrix\[73\]
*76 DP_1\.matrix\[74\]
*77 DP_1\.matrix\[75\]
*78 DP_1\.matrix\[76\]
*79 DP_1\.matrix\[77\]
*80 DP_1\.matrix\[78\]
*81 DP_1\.matrix\[79\]
*82 DP_1\.matrix\[7\]
*83 DP_1\.matrix\[80\]
*84 DP_1\.matrix\[8\]
*85 DP_2\.I_range\.data_plus_4\[6\]
*86 DP_2\.I_range\.out_data\[2\]
*87 DP_2\.I_range\.out_data\[3\]
*88 DP_2\.I_range\.out_data\[4\]
*89 DP_2\.I_range\.out_data\[5\]
*90 DP_2\.I_range\.out_data\[6\]
*91 DP_2\.Q_range\.data_plus_4\[6\]
*92 DP_2\.Q_range\.out_data\[2\]
*93 DP_2\.Q_range\.out_data\[3\]
*94 DP_2\.Q_range\.out_data\[4\]
*95 DP_2\.Q_range\.out_data\[5\]
*96 DP_2\.Q_range\.out_data\[6\]
*97 DP_2\.matrix\[0\]
*98 DP_2\.matrix\[1\]
*99 DP_2\.matrix\[2\]
*100 DP_2\.matrix\[36\]
*101 DP_2\.matrix\[37\]
*102 DP_2\.matrix\[38\]
*103 DP_2\.matrix\[39\]
*104 DP_2\.matrix\[3\]
*105 DP_2\.matrix\[40\]
*106 DP_2\.matrix\[41\]
*107 DP_2\.matrix\[42\]
*108 DP_2\.matrix\[43\]
*109 DP_2\.matrix\[44\]
*110 DP_2\.matrix\[4\]
*111 DP_2\.matrix\[5\]
*112 DP_2\.matrix\[6\]
*113 DP_2\.matrix\[72\]
*114 DP_2\.matrix\[73\]
*115 DP_2\.matrix\[74\]
*116 DP_2\.matrix\[75\]
*117 DP_2\.matrix\[76\]
*118 DP_2\.matrix\[77\]
*119 DP_2\.matrix\[78\]
*120 DP_2\.matrix\[79\]
*121 DP_2\.matrix\[7\]
*122 DP_2\.matrix\[80\]
*123 DP_2\.matrix\[8\]
*124 _0000_
*125 _0001_
*126 _0002_
*127 _0003_
*128 _0004_
*129 _0005_
*130 _0006_
*131 _0007_
*132 _0008_
*133 _0009_
*134 _0010_
*135 _0011_
*136 _0012_
*137 _0013_
*138 _0014_
*139 _0015_
*140 _0016_
*141 _0017_
*142 _0018_
*143 _0019_
*144 _0020_
*145 _0021_
*146 _0022_
*147 _0023_
*148 _0024_
*149 _0025_
*150 _0026_
*151 _0027_
*152 _0028_
*153 _0029_
*154 _0030_
*155 _0031_
*156 _0032_
*157 _0033_
*158 _0034_
*159 _0035_
*160 _0036_
*161 _0037_
*162 _0038_
*163 _0039_
*164 _0040_
*165 _0041_
*166 _0042_
*167 _0043_
*168 _0044_
*169 _0045_
*170 _0046_
*171 _0047_
*172 _0048_
*173 _0049_
*174 _0050_
*175 _0051_
*176 _0052_
*177 _0053_
*178 _0054_
*179 _0055_
*180 _0056_
*181 _0057_
*182 _0058_
*183 _0059_
*184 _0060_
*185 _0061_
*186 _0062_
*187 _0063_
*188 _0064_
*189 _0065_
*190 _0066_
*191 _0067_
*192 _0068_
*193 _0069_
*194 _0070_
*195 _0071_
*196 _0072_
*197 _0073_
*198 _0074_
*199 _0075_
*200 _0076_
*201 _0077_
*202 _0078_
*203 _0079_
*204 _0080_
*205 _0081_
*206 _0082_
*207 _0083_
*208 _0084_
*209 _0085_
*210 _0086_
*211 _0087_
*212 _0088_
*213 _0089_
*214 _0090_
*215 _0091_
*216 _0092_
*217 _0093_
*218 _0094_
*219 _0095_
*220 _0096_
*221 _0097_
*222 _0098_
*223 _0099_
*224 _0100_
*225 _0101_
*226 _0102_
*227 _0103_
*228 _0104_
*229 _0105_
*230 _0106_
*231 _0107_
*232 _0108_
*233 _0109_
*234 _0110_
*235 _0111_
*236 _0112_
*237 _0113_
*238 _0114_
*239 _0115_
*240 _0116_
*241 _0117_
*242 _0118_
*243 _0119_
*244 _0120_
*245 _0121_
*246 _0122_
*247 _0123_
*248 _0124_
*249 _0125_
*250 _0126_
*251 _0127_
*252 _0128_
*253 _0129_
*254 _0130_
*255 _0131_
*256 _0132_
*257 _0133_
*258 _0134_
*259 _0135_
*260 _0136_
*261 _0137_
*262 _0138_
*263 _0139_
*264 _0140_
*265 _0141_
*266 _0142_
*267 _0143_
*268 _0144_
*269 _0145_
*270 _0146_
*271 _0147_
*272 _0148_
*273 _0149_
*274 _0150_
*275 _0151_
*276 _0152_
*277 _0153_
*278 _0154_
*279 _0155_
*280 _0156_
*281 _0157_
*282 _0158_
*283 _0159_
*284 _0160_
*285 _0161_
*286 _0162_
*287 _0163_
*288 _0164_
*289 _0165_
*290 _0166_
*291 _0167_
*292 _0168_
*293 _0169_
*294 _0170_
*295 _0171_
*296 _0172_
*297 _0173_
*298 _0174_
*299 _0175_
*300 _0176_
*301 _0177_
*302 _0178_
*303 _0179_
*304 _0180_
*305 _0181_
*306 _0182_
*307 _0183_
*308 _0184_
*309 _0185_
*310 _0186_
*311 _0187_
*312 _0188_
*313 _0189_
*314 _0190_
*315 _0191_
*316 _0192_
*317 _0193_
*318 _0194_
*319 _0195_
*320 _0196_
*321 _0197_
*322 _0198_
*323 _0199_
*324 _0200_
*325 _0201_
*326 _0202_
*327 _0203_
*328 _0204_
*329 _0205_
*330 _0206_
*331 _0207_
*332 _0208_
*333 _0209_
*334 _0210_
*335 _0211_
*336 _0212_
*337 _0213_
*338 _0214_
*339 _0215_
*340 _0216_
*341 _0217_
*342 _0218_
*343 _0219_
*344 _0220_
*345 _0221_
*346 _0222_
*347 _0223_
*348 _0224_
*349 _0225_
*350 _0226_
*351 _0227_
*352 _0228_
*353 _0229_
*354 _0230_
*355 _0231_
*356 _0232_
*357 _0233_
*358 _0234_
*359 _0235_
*360 _0236_
*361 _0237_
*362 _0238_
*363 _0239_
*364 _0240_
*365 _0241_
*366 _0242_
*367 _0243_
*368 _0244_
*369 _0245_
*370 _0246_
*371 _0247_
*372 _0248_
*373 _0249_
*374 _0250_
*375 _0251_
*376 _0252_
*377 _0253_
*378 _0254_
*379 _0255_
*380 _0256_
*381 _0257_
*382 _0258_
*383 _0259_
*384 _0260_
*385 _0261_
*386 _0262_
*387 _0263_
*388 _0264_
*389 _0265_
*390 _0266_
*391 _0267_
*392 _0268_
*393 _0269_
*394 _0270_
*395 _0271_
*396 _0272_
*397 _0273_
*398 _0274_
*399 _0275_
*400 _0276_
*401 _0277_
*402 _0278_
*403 _0279_
*404 _0280_
*405 _0281_
*406 _0282_
*407 _0283_
*408 _0284_
*409 _0285_
*410 _0286_
*411 _0287_
*412 _0288_
*413 _0289_
*414 _0290_
*415 _0291_
*416 _0292_
*417 _0293_
*418 _0294_
*419 _0295_
*420 _0296_
*421 _0297_
*422 _0298_
*423 _0299_
*424 _0300_
*425 _0301_
*426 _0302_
*427 _0303_
*428 _0304_
*429 _0305_
*430 _0306_
*431 _0307_
*432 _0308_
*433 _0309_
*434 _0310_
*435 _0311_
*436 _0312_
*437 _0313_
*438 _0314_
*439 _0315_
*440 _0316_
*441 _0317_
*442 _0318_
*443 _0319_
*444 _0320_
*445 _0321_
*446 _0322_
*447 _0323_
*448 _0324_
*449 _0325_
*450 _0326_
*451 _0327_
*452 _0328_
*453 _0329_
*454 _0330_
*455 _0331_
*456 _0332_
*457 _0333_
*458 _0334_
*459 _0335_
*460 _0336_
*461 _0337_
*462 _0338_
*463 _0339_
*464 _0340_
*465 _0341_
*466 _0342_
*467 _0343_
*468 _0344_
*469 _0345_
*470 _0346_
*471 _0347_
*472 _0348_
*473 _0349_
*474 _0350_
*475 _0351_
*476 _0352_
*477 _0353_
*478 _0354_
*479 _0355_
*480 _0356_
*481 _0357_
*482 _0358_
*483 _0359_
*484 _0360_
*485 _0361_
*486 _0362_
*487 _0363_
*488 _0364_
*489 _0365_
*490 _0366_
*491 _0367_
*492 _0368_
*493 _0369_
*494 _0370_
*495 _0371_
*496 _0372_
*497 _0373_
*498 _0374_
*499 _0375_
*500 _0376_
*501 _0377_
*502 _0378_
*503 _0379_
*504 _0380_
*505 _0381_
*506 _0382_
*507 _0383_
*508 _0384_
*509 _0385_
*510 _0386_
*511 _0387_
*512 _0388_
*513 _0389_
*514 _0390_
*515 _0391_
*516 _0392_
*517 _0393_
*518 _0394_
*519 _0395_
*520 _0396_
*521 _0397_
*522 _0398_
*523 _0399_
*524 _0400_
*525 _0401_
*526 _0402_
*527 _0403_
*528 _0404_
*529 _0405_
*530 _0406_
*531 _0407_
*532 _0408_
*533 _0409_
*534 _0410_
*535 _0411_
*536 _0412_
*537 _0413_
*538 _0414_
*539 _0415_
*540 _0416_
*541 _0417_
*542 _0418_
*543 _0419_
*544 _0420_
*545 _0421_
*546 _0422_
*547 _0423_
*548 _0424_
*549 _0425_
*550 _0426_
*551 _0427_
*552 _0428_
*553 _0429_
*554 _0430_
*555 _0431_
*556 _0432_
*557 _0433_
*558 _0434_
*559 _0435_
*560 _0436_
*561 _0437_
*562 _0438_
*563 _0439_
*564 _0440_
*565 _0441_
*566 _0442_
*567 _0443_
*568 _0444_
*569 _0445_
*570 _0446_
*571 _0447_
*572 _0448_
*573 _0449_
*574 _0450_
*575 _0451_
*576 _0452_
*577 _0453_
*578 _0454_
*579 _0455_
*580 _0456_
*581 _0457_
*582 _0458_
*583 _0459_
*584 _0460_
*585 _0461_
*586 _0462_
*587 _0463_
*588 _0464_
*589 _0465_
*590 _0466_
*591 _0467_
*592 _0468_
*593 _0469_
*594 _0470_
*595 _0471_
*596 _0472_
*597 _0473_
*598 _0474_
*599 _0475_
*600 _0476_
*601 _0477_
*602 _0478_
*603 _0479_
*604 _0480_
*605 _0481_
*606 _0482_
*607 _0483_
*608 _0484_
*609 _0485_
*610 _0486_
*611 _0487_
*612 _0488_
*613 _0489_
*614 _0490_
*615 _0491_
*616 _0492_
*617 _0493_
*618 _0494_
*619 _0495_
*620 _0496_
*621 _0497_
*622 _0498_
*623 _0499_
*624 _0500_
*625 _0501_
*626 _0502_
*627 _0503_
*628 _0504_
*629 _0505_
*630 _0506_
*631 _0507_
*632 _0508_
*633 _0509_
*634 _0510_
*635 _0511_
*636 _0512_
*637 _0513_
*638 _0514_
*639 _0515_
*640 _0516_
*641 _0517_
*642 _0518_
*643 _0519_
*644 _0520_
*645 _0521_
*646 _0522_
*647 _0523_
*648 _0524_
*649 _0525_
*650 _0526_
*651 _0527_
*652 _0528_
*653 _0529_
*654 _0530_
*655 _0531_
*656 _0532_
*657 _0533_
*658 _0534_
*659 _0535_
*660 _0536_
*661 _0537_
*662 _0538_
*663 _0539_
*664 _0540_
*665 _0541_
*666 _0542_
*667 _0543_
*668 _0544_
*669 _0545_
*670 _0546_
*671 _0547_
*672 _0548_
*673 _0549_
*674 _0550_
*675 _0551_
*676 _0552_
*677 _0553_
*678 _0554_
*679 _0555_
*680 _0556_
*681 _0557_
*682 _0558_
*683 _0559_
*684 _0560_
*685 _0561_
*686 _0562_
*687 _0563_
*688 _0564_
*689 _0565_
*690 _0566_
*691 _0567_
*692 _0568_
*693 _0569_
*694 _0570_
*695 _0571_
*696 _0572_
*697 _0573_
*698 _0574_
*699 _0575_
*700 _0576_
*701 _0577_
*702 _0578_
*703 _0579_
*704 _0580_
*705 _0581_
*706 _0582_
*707 _0583_
*708 _0584_
*709 _0585_
*710 _0586_
*711 _0587_
*712 _0588_
*713 _0589_
*714 _0590_
*715 _0591_
*716 _0592_
*717 _0593_
*718 _0594_
*719 _0595_
*720 _0596_
*721 _0597_
*722 _0598_
*723 _0599_
*724 _0600_
*725 _0601_
*726 _0602_
*727 _0603_
*728 _0604_
*729 _0605_
*730 _0606_
*731 _0607_
*732 _0608_
*733 _0609_
*734 _0610_
*735 _0611_
*736 _0612_
*737 _0613_
*738 _0614_
*739 _0615_
*740 _0616_
*741 _0617_
*742 _0618_
*743 _0619_
*744 _0620_
*745 _0621_
*746 _0622_
*747 _0623_
*748 _0624_
*749 _0625_
*750 _0626_
*751 _0627_
*752 _0628_
*753 _0629_
*754 _0630_
*755 _0631_
*756 _0632_
*757 _0633_
*758 _0634_
*759 _0635_
*760 _0636_
*761 _0637_
*762 _0638_
*763 _0639_
*764 _0640_
*765 _0641_
*766 _0642_
*767 _0643_
*768 _0644_
*769 _0645_
*770 _0646_
*771 _0647_
*772 _0648_
*773 _0649_
*774 _0650_
*775 _0651_
*776 _0652_
*777 _0653_
*778 _0654_
*779 _0655_
*780 _0656_
*781 _0657_
*782 _0658_
*783 _0659_
*784 _0660_
*785 _0661_
*786 _0662_
*787 _0663_
*788 _0664_
*789 _0665_
*790 _0666_
*791 _0667_
*792 _0668_
*793 _0669_
*794 _0670_
*795 _0671_
*796 _0672_
*797 _0673_
*798 _0674_
*799 _0675_
*800 _0676_
*801 _0677_
*802 _0678_
*803 _0679_
*804 _0680_
*805 _0681_
*806 _0682_
*807 _0683_
*808 _0684_
*809 _0685_
*810 _0686_
*811 _0687_
*812 _0688_
*813 _0689_
*814 _0690_
*815 _0691_
*816 _0692_
*817 _0693_
*818 _0694_
*819 _0695_
*820 _0696_
*821 _0697_
*822 _0698_
*823 _0699_
*824 _0700_
*825 _0701_
*826 _0702_
*827 _0703_
*828 _0704_
*829 _0705_
*830 _0706_
*831 _0707_
*832 _0708_
*833 _0709_
*834 _0710_
*835 _0711_
*836 _0712_
*837 _0713_
*838 _0714_
*839 _0715_
*840 _0716_
*841 _0717_
*842 _0718_
*843 _0719_
*844 _0720_
*845 _0721_
*846 _0722_
*847 _0723_
*848 _0724_
*849 _0725_
*850 _0726_
*851 _0727_
*852 _0728_
*853 _0729_
*854 _0730_
*855 _0731_
*856 _0732_
*857 _0733_
*858 _0734_
*859 _0735_
*860 _0736_
*861 _0737_
*862 _0738_
*863 _0739_
*864 _0740_
*865 _0741_
*866 _0742_
*867 _0743_
*868 _0744_
*869 _0745_
*870 _0746_
*871 _0747_
*872 _0748_
*873 _0749_
*874 _0750_
*875 _0751_
*876 _0752_
*877 _0753_
*878 _0754_
*879 _0755_
*880 _0756_
*881 _0757_
*882 _0758_
*883 _0759_
*884 _0760_
*885 _0761_
*886 _0762_
*887 _0763_
*888 _0764_
*889 _0765_
*890 _0766_
*891 _0767_
*892 _0768_
*893 _0769_
*894 _0770_
*895 _0771_
*896 _0772_
*897 _0773_
*898 _0774_
*899 _0775_
*900 _0776_
*901 _0777_
*902 _0778_
*903 _0779_
*904 _0780_
*905 _0781_
*906 _0782_
*907 _0783_
*908 _0784_
*909 _0785_
*910 _0786_
*911 _0787_
*912 _0788_
*913 _0789_
*914 _0790_
*915 _0791_
*916 _0792_
*917 _0793_
*918 _0794_
*919 _0795_
*920 _0796_
*921 _0797_
*922 _0798_
*923 _0799_
*924 _0800_
*925 _0801_
*926 _0802_
*927 _0803_
*928 _0804_
*929 _0805_
*930 _0806_
*931 _0807_
*932 _0808_
*933 _0809_
*934 _0810_
*935 _0811_
*936 _0812_
*937 _0813_
*938 _0814_
*939 _0815_
*940 _0816_
*941 _0817_
*942 _0818_
*943 _0819_
*944 _0820_
*945 _0821_
*946 _0822_
*947 _0823_
*948 _0824_
*949 _0825_
*950 _0826_
*951 _0827_
*952 _0828_
*953 _0829_
*954 _0830_
*955 _0831_
*956 _0832_
*957 _0833_
*958 _0834_
*959 _0835_
*960 _0836_
*961 _0837_
*962 _0838_
*963 _0839_
*964 _0840_
*965 _0841_
*966 _0842_
*967 _0843_
*968 _0844_
*969 _0845_
*970 _0846_
*971 _0847_
*972 _0848_
*973 _0849_
*974 _0850_
*975 _0851_
*976 _0852_
*977 _0853_
*978 _0854_
*979 _0855_
*980 _0856_
*981 _0857_
*982 _0858_
*983 _0859_
*984 _0860_
*985 _0861_
*986 _0862_
*987 _0863_
*988 _0864_
*989 _0865_
*990 _0866_
*991 _0867_
*992 _0868_
*993 _0869_
*994 _0870_
*995 _0871_
*996 _0872_
*997 _0873_
*998 _0874_
*999 _0875_
*1000 _0876_
*1001 _0877_
*1002 _0878_
*1003 _0879_
*1004 _0880_
*1005 _0881_
*1006 _0882_
*1007 _0883_
*1008 _0884_
*1009 _0885_
*1010 _0886_
*1011 _0887_
*1012 _0888_
*1013 _0889_
*1014 _0890_
*1015 _0891_
*1016 _0892_
*1017 _0893_
*1018 _0894_
*1019 _0895_
*1020 _0896_
*1021 _0897_
*1022 _0898_
*1023 _0899_
*1024 _0900_
*1025 _0901_
*1026 _0902_
*1027 _0903_
*1028 _0904_
*1029 _0905_
*1030 _0906_
*1031 _0907_
*1032 _0908_
*1033 _0909_
*1034 _0910_
*1035 _0911_
*1036 _0912_
*1037 _0913_
*1038 _0914_
*1039 _0915_
*1040 _0916_
*1041 _0917_
*1042 _0918_
*1043 _0919_
*1044 _0920_
*1045 _0921_
*1046 _0922_
*1047 _0923_
*1048 _0924_
*1049 _0925_
*1050 _0926_
*1051 _0927_
*1052 _0928_
*1053 _0929_
*1054 _0930_
*1055 _0931_
*1056 _0932_
*1057 _0933_
*1058 _0934_
*1059 _0935_
*1060 _0936_
*1061 _0937_
*1062 _0938_
*1063 _0939_
*1064 _0940_
*1065 _0941_
*1066 _0942_
*1067 _0943_
*1068 _0944_
*1069 _0945_
*1070 _0946_
*1071 _0947_
*1072 _0948_
*1073 _0949_
*1074 _0950_
*1075 _0951_
*1076 _0952_
*1077 _0953_
*1078 _0954_
*1079 _0955_
*1080 _0956_
*1081 _0957_
*1082 _0958_
*1083 _0959_
*1084 _0960_
*1085 _0961_
*1086 _0962_
*1087 _0963_
*1088 _0964_
*1089 _0965_
*1090 _0966_
*1091 _0967_
*1092 _0968_
*1093 _0969_
*1094 _0970_
*1095 _0971_
*1096 _0972_
*1097 _0973_
*1098 _0974_
*1099 _0975_
*1100 _0976_
*1101 _0977_
*1102 _0978_
*1103 _0979_
*1104 _0980_
*1105 _0981_
*1106 _0982_
*1107 _0983_
*1108 _0984_
*1109 _0985_
*1110 _0986_
*1111 _0987_
*1112 _0988_
*1113 _0989_
*1114 _0990_
*1115 _0991_
*1116 _0992_
*1117 _0993_
*1118 _0994_
*1119 _0995_
*1120 _0996_
*1121 _0997_
*1122 _0998_
*1123 _0999_
*1124 _1000_
*1125 _1001_
*1126 _1002_
*1127 _1003_
*1128 _1004_
*1129 _1005_
*1130 _1006_
*1131 _1007_
*1132 _1008_
*1133 _1009_
*1134 _1010_
*1135 _1011_
*1136 _1012_
*1137 _1013_
*1138 _1014_
*1139 _1015_
*1140 _1016_
*1141 _1017_
*1142 _1018_
*1143 _1019_
*1144 _1020_
*1145 _1021_
*1146 _1022_
*1147 _1023_
*1148 _1024_
*1149 _1025_
*1150 _1026_
*1151 _1027_
*1152 _1028_
*1153 _1029_
*1154 _1030_
*1155 _1031_
*1156 _1032_
*1157 _1033_
*1158 _1034_
*1159 _1035_
*1160 _1036_
*1161 _1037_
*1162 _1038_
*1163 _1039_
*1164 _1040_
*1165 _1041_
*1166 _1042_
*1167 _1043_
*1168 _1044_
*1169 _1045_
*1170 _1046_
*1171 _1047_
*1172 _1048_
*1173 _1049_
*1174 _1050_
*1175 _1051_
*1176 _1052_
*1177 _1053_
*1178 _1054_
*1179 _1055_
*1180 _1056_
*1181 _1057_
*1182 _1058_
*1183 _1059_
*1184 _1060_
*1185 _1061_
*1186 _1062_
*1187 _1063_
*1188 _1064_
*1189 _1065_
*1190 _1066_
*1191 _1067_
*1192 _1068_
*1193 _1069_
*1194 _1070_
*1195 _1071_
*1196 _1072_
*1197 _1073_
*1198 _1074_
*1199 _1075_
*1200 _1076_
*1201 _1077_
*1202 _1078_
*1203 _1079_
*1204 _1080_
*1205 _1081_
*1206 _1082_
*1207 _1083_
*1208 _1084_
*1209 _1085_
*1210 _1086_
*1211 _1087_
*1212 _1088_
*1213 _1089_
*1214 _1090_
*1215 _1091_
*1216 _1092_
*1217 _1093_
*1218 _1094_
*1219 _1095_
*1220 _1096_
*1221 _1097_
*1222 _1098_
*1223 _1099_
*1224 _1100_
*1225 _1101_
*1226 _1102_
*1227 _1103_
*1228 _1104_
*1229 _1105_
*1230 _1106_
*1231 _1107_
*1232 _1108_
*1233 _1109_
*1234 _1110_
*1235 _1111_
*1236 _1112_
*1237 _1113_
*1238 _1114_
*1239 _1115_
*1240 _1116_
*1241 _1117_
*1242 _1118_
*1243 _1119_
*1244 _1120_
*1245 _1121_
*1246 _1122_
*1247 _1123_
*1248 _1124_
*1249 _1125_
*1250 _1126_
*1251 _1127_
*1252 _1128_
*1253 _1129_
*1254 _1130_
*1255 _1131_
*1256 _1132_
*1257 _1133_
*1258 _1134_
*1259 _1135_
*1260 _1136_
*1261 _1137_
*1262 _1138_
*1263 _1139_
*1264 _1140_
*1265 _1141_
*1266 _1142_
*1267 _1143_
*1268 _1144_
*1269 _1145_
*1270 _1146_
*1271 _1147_
*1272 _1148_
*1273 _1149_
*1274 _1150_
*1275 _1151_
*1276 _1152_
*1277 _1153_
*1278 _1154_
*1279 _1155_
*1280 _1156_
*1281 _1157_
*1282 _1158_
*1283 _1159_
*1284 _1160_
*1285 _1161_
*1286 _1162_
*1287 _1163_
*1288 _1164_
*1289 _1165_
*1290 _1166_
*1291 _1167_
*1292 _1168_
*1293 _1169_
*1294 _1170_
*1295 _1171_
*1296 _1172_
*1297 _1173_
*1298 _1174_
*1299 _1175_
*1300 _1176_
*1301 _1177_
*1302 _1178_
*1303 _1179_
*1304 _1180_
*1305 _1181_
*1306 _1182_
*1307 _1183_
*1308 _1184_
*1309 _1185_
*1310 _1186_
*1311 _1187_
*1312 _1188_
*1313 _1189_
*1314 _1190_
*1315 _1191_
*1316 _1192_
*1317 _1193_
*1318 _1194_
*1319 _1195_
*1320 _1196_
*1321 _1197_
*1322 _1198_
*1323 _1199_
*1324 _1200_
*1325 _1201_
*1326 _1202_
*1327 _1203_
*1328 _1204_
*1329 _1205_
*1330 _1206_
*1331 _1207_
*1332 _1208_
*1333 _1209_
*1334 _1210_
*1335 _1211_
*1336 _1212_
*1337 _1213_
*1338 _1214_
*1339 _1215_
*1340 _1216_
*1341 _1217_
*1342 _1218_
*1343 _1219_
*1344 _1220_
*1345 _1221_
*1346 _1222_
*1347 _1223_
*1348 _1224_
*1349 _1225_
*1350 _1226_
*1351 _1227_
*1352 _1228_
*1353 _1229_
*1354 _1230_
*1355 _1231_
*1356 _1232_
*1357 _1233_
*1358 _1234_
*1359 _1235_
*1360 _1236_
*1361 _1237_
*1362 _1238_
*1363 _1239_
*1364 _1240_
*1365 _1241_
*1366 _1242_
*1367 _1243_
*1368 _1244_
*1369 _1245_
*1370 _1246_
*1371 _1247_
*1372 _1248_
*1373 _1249_
*1374 _1250_
*1375 _1251_
*1376 _1252_
*1377 _1253_
*1378 _1254_
*1379 _1255_
*1380 _1256_
*1381 _1257_
*1382 _1258_
*1383 _1259_
*1384 _1260_
*1385 _1261_
*1386 _1262_
*1387 _1263_
*1388 _1264_
*1389 _1265_
*1390 _1266_
*1391 _1267_
*1392 _1268_
*1393 _1269_
*1394 _1270_
*1395 _1271_
*1396 _1272_
*1397 _1273_
*1398 _1274_
*1399 _1275_
*1400 _1276_
*1401 _1277_
*1402 _1278_
*1403 _1279_
*1404 _1280_
*1405 _1281_
*1406 _1282_
*1407 _1283_
*1408 _1284_
*1409 _1285_
*1410 _1286_
*1411 _1287_
*1412 _1288_
*1413 _1289_
*1414 _1290_
*1415 _1291_
*1416 _1292_
*1417 _1293_
*1418 _1294_
*1419 _1295_
*1420 _1296_
*1421 _1297_
*1422 _1298_
*1423 _1299_
*1424 _1300_
*1425 _1301_
*1426 _1302_
*1427 _1303_
*1428 _1304_
*1429 _1305_
*1430 _1306_
*1431 _1307_
*1432 _1308_
*1433 _1309_
*1434 _1310_
*1435 _1311_
*1436 _1312_
*1437 _1313_
*1438 _1314_
*1439 _1315_
*1440 _1316_
*1441 _1317_
*1442 _1318_
*1443 _1319_
*1444 _1320_
*1445 _1321_
*1446 _1322_
*1447 _1323_
*1448 _1324_
*1449 _1325_
*1450 _1326_
*1451 _1327_
*1452 _1328_
*1453 _1329_
*1454 _1330_
*1455 _1331_
*1456 _1332_
*1457 _1333_
*1458 _1334_
*1459 _1335_
*1460 _1336_
*1461 _1337_
*1462 _1338_
*1463 _1339_
*1464 _1340_
*1465 _1341_
*1466 _1342_
*1467 _1343_
*1468 _1344_
*1469 _1345_
*1470 _1346_
*1471 _1347_
*1472 _1348_
*1473 _1349_
*1474 _1350_
*1475 _1351_
*1476 _1352_
*1477 _1353_
*1478 _1354_
*1479 _1355_
*1480 _1356_
*1481 _1357_
*1482 _1358_
*1483 _1359_
*1484 _1360_
*1485 _1361_
*1486 _1362_
*1487 _1363_
*1488 _1364_
*1489 _1365_
*1490 _1366_
*1491 _1367_
*1492 _1368_
*1493 _1369_
*1494 _1370_
*1495 _1371_
*1496 _1372_
*1497 _1373_
*1498 _1374_
*1499 _1375_
*1500 _1376_
*1501 _1377_
*1502 _1378_
*1503 _1379_
*1504 _1380_
*1505 _1381_
*1506 _1382_
*1507 _1383_
*1508 _1384_
*1509 _1385_
*1510 _1386_
*1511 _1387_
*1512 _1388_
*1513 _1389_
*1514 _1390_
*1515 _1391_
*1516 _1392_
*1517 _1393_
*1518 _1394_
*1519 _1395_
*1520 _1396_
*1521 _1397_
*1522 _1398_
*1523 _1399_
*1524 _1400_
*1525 _1401_
*1526 _1402_
*1527 _1403_
*1528 _1404_
*1529 _1405_
*1530 _1406_
*1531 _1407_
*1532 _1408_
*1533 _1409_
*1534 _1410_
*1535 _1411_
*1536 _1412_
*1537 _1413_
*1538 _1414_
*1539 _1415_
*1540 _1416_
*1541 _1417_
*1542 _1418_
*1543 _1419_
*1544 _1420_
*1545 _1421_
*1546 _1422_
*1547 _1423_
*1548 _1424_
*1549 _1425_
*1550 _1426_
*1551 _1427_
*1552 _1428_
*1553 _1429_
*1554 _1430_
*1555 _1431_
*1556 _1432_
*1557 _1433_
*1558 _1434_
*1559 _1435_
*1560 _1436_
*1561 _1437_
*1562 _1438_
*1563 _1439_
*1564 _1440_
*1565 _1441_
*1566 _1442_
*1567 _1443_
*1568 _1444_
*1569 _1445_
*1570 _1446_
*1571 _1447_
*1572 _1448_
*1573 _1449_
*1574 _1450_
*1575 _1451_
*1576 _1452_
*1577 _1453_
*1578 _1454_
*1579 _1455_
*1580 _1456_
*1581 _1457_
*1582 _1458_
*1583 _1459_
*1584 _1460_
*1585 _1461_
*1586 _1462_
*1587 _1463_
*1588 _1464_
*1589 _1465_
*1590 _1466_
*1591 _1467_
*1592 _1468_
*1593 _1469_
*1594 _1470_
*1595 _1471_
*1596 _1472_
*1597 _1473_
*1598 _1474_
*1599 _1475_
*1600 _1476_
*1601 _1477_
*1602 _1478_
*1603 _1479_
*1604 _1480_
*1605 _1481_
*1606 _1482_
*1607 _1483_
*1608 _1484_
*1609 _1485_
*1610 _1486_
*1611 _1487_
*1612 _1488_
*1613 _1489_
*1614 _1490_
*1615 _1491_
*1616 _1492_
*1617 _1493_
*1618 _1494_
*1619 _1495_
*1620 _1496_
*1621 _1497_
*1622 _1498_
*1623 _1499_
*1624 _1500_
*1625 clknet_0_clk
*1626 clknet_3_0__leaf_clk
*1627 clknet_3_1__leaf_clk
*1628 clknet_3_2__leaf_clk
*1629 clknet_3_3__leaf_clk
*1630 clknet_3_4__leaf_clk
*1631 clknet_3_5__leaf_clk
*1632 clknet_3_6__leaf_clk
*1633 clknet_3_7__leaf_clk
*1634 clknet_leaf_0_clk
*1635 clknet_leaf_10_clk
*1636 clknet_leaf_11_clk
*1637 clknet_leaf_12_clk
*1638 clknet_leaf_13_clk
*1639 clknet_leaf_14_clk
*1640 clknet_leaf_16_clk
*1641 clknet_leaf_17_clk
*1642 clknet_leaf_18_clk
*1643 clknet_leaf_19_clk
*1644 clknet_leaf_1_clk
*1645 clknet_leaf_20_clk
*1646 clknet_leaf_21_clk
*1647 clknet_leaf_22_clk
*1648 clknet_leaf_23_clk
*1649 clknet_leaf_24_clk
*1650 clknet_leaf_25_clk
*1651 clknet_leaf_26_clk
*1652 clknet_leaf_27_clk
*1653 clknet_leaf_28_clk
*1654 clknet_leaf_29_clk
*1655 clknet_leaf_2_clk
*1656 clknet_leaf_30_clk
*1657 clknet_leaf_31_clk
*1658 clknet_leaf_32_clk
*1659 clknet_leaf_33_clk
*1660 clknet_leaf_34_clk
*1661 clknet_leaf_35_clk
*1662 clknet_leaf_36_clk
*1663 clknet_leaf_37_clk
*1664 clknet_leaf_38_clk
*1665 clknet_leaf_3_clk
*1666 clknet_leaf_4_clk
*1667 clknet_leaf_5_clk
*1668 clknet_leaf_6_clk
*1669 clknet_leaf_7_clk
*1670 clknet_leaf_8_clk
*1671 clknet_leaf_9_clk
*1672 mac1\.products_ff\[0\]
*1673 mac1\.products_ff\[10\]
*1674 mac1\.products_ff\[11\]
*1675 mac1\.products_ff\[12\]
*1676 mac1\.products_ff\[136\]
*1677 mac1\.products_ff\[137\]
*1678 mac1\.products_ff\[138\]
*1679 mac1\.products_ff\[139\]
*1680 mac1\.products_ff\[13\]
*1681 mac1\.products_ff\[140\]
*1682 mac1\.products_ff\[141\]
*1683 mac1\.products_ff\[142\]
*1684 mac1\.products_ff\[143\]
*1685 mac1\.products_ff\[144\]
*1686 mac1\.products_ff\[145\]
*1687 mac1\.products_ff\[146\]
*1688 mac1\.products_ff\[147\]
*1689 mac1\.products_ff\[148\]
*1690 mac1\.products_ff\[149\]
*1691 mac1\.products_ff\[14\]
*1692 mac1\.products_ff\[150\]
*1693 mac1\.products_ff\[151\]
*1694 mac1\.products_ff\[15\]
*1695 mac1\.products_ff\[1\]
*1696 mac1\.products_ff\[2\]
*1697 mac1\.products_ff\[3\]
*1698 mac1\.products_ff\[4\]
*1699 mac1\.products_ff\[5\]
*1700 mac1\.products_ff\[68\]
*1701 mac1\.products_ff\[69\]
*1702 mac1\.products_ff\[6\]
*1703 mac1\.products_ff\[70\]
*1704 mac1\.products_ff\[71\]
*1705 mac1\.products_ff\[72\]
*1706 mac1\.products_ff\[73\]
*1707 mac1\.products_ff\[74\]
*1708 mac1\.products_ff\[75\]
*1709 mac1\.products_ff\[76\]
*1710 mac1\.products_ff\[77\]
*1711 mac1\.products_ff\[78\]
*1712 mac1\.products_ff\[79\]
*1713 mac1\.products_ff\[7\]
*1714 mac1\.products_ff\[80\]
*1715 mac1\.products_ff\[81\]
*1716 mac1\.products_ff\[82\]
*1717 mac1\.products_ff\[83\]
*1718 mac1\.products_ff\[8\]
*1719 mac1\.products_ff\[9\]
*1720 mac1\.sum_lvl1_ff\[0\]
*1721 mac1\.sum_lvl1_ff\[10\]
*1722 mac1\.sum_lvl1_ff\[11\]
*1723 mac1\.sum_lvl1_ff\[12\]
*1724 mac1\.sum_lvl1_ff\[13\]
*1725 mac1\.sum_lvl1_ff\[14\]
*1726 mac1\.sum_lvl1_ff\[15\]
*1727 mac1\.sum_lvl1_ff\[1\]
*1728 mac1\.sum_lvl1_ff\[2\]
*1729 mac1\.sum_lvl1_ff\[36\]
*1730 mac1\.sum_lvl1_ff\[37\]
*1731 mac1\.sum_lvl1_ff\[38\]
*1732 mac1\.sum_lvl1_ff\[39\]
*1733 mac1\.sum_lvl1_ff\[3\]
*1734 mac1\.sum_lvl1_ff\[40\]
*1735 mac1\.sum_lvl1_ff\[41\]
*1736 mac1\.sum_lvl1_ff\[42\]
*1737 mac1\.sum_lvl1_ff\[43\]
*1738 mac1\.sum_lvl1_ff\[44\]
*1739 mac1\.sum_lvl1_ff\[45\]
*1740 mac1\.sum_lvl1_ff\[46\]
*1741 mac1\.sum_lvl1_ff\[47\]
*1742 mac1\.sum_lvl1_ff\[48\]
*1743 mac1\.sum_lvl1_ff\[49\]
*1744 mac1\.sum_lvl1_ff\[4\]
*1745 mac1\.sum_lvl1_ff\[50\]
*1746 mac1\.sum_lvl1_ff\[51\]
*1747 mac1\.sum_lvl1_ff\[5\]
*1748 mac1\.sum_lvl1_ff\[6\]
*1749 mac1\.sum_lvl1_ff\[72\]
*1750 mac1\.sum_lvl1_ff\[73\]
*1751 mac1\.sum_lvl1_ff\[74\]
*1752 mac1\.sum_lvl1_ff\[75\]
*1753 mac1\.sum_lvl1_ff\[76\]
*1754 mac1\.sum_lvl1_ff\[77\]
*1755 mac1\.sum_lvl1_ff\[78\]
*1756 mac1\.sum_lvl1_ff\[79\]
*1757 mac1\.sum_lvl1_ff\[7\]
*1758 mac1\.sum_lvl1_ff\[80\]
*1759 mac1\.sum_lvl1_ff\[81\]
*1760 mac1\.sum_lvl1_ff\[82\]
*1761 mac1\.sum_lvl1_ff\[83\]
*1762 mac1\.sum_lvl1_ff\[84\]
*1763 mac1\.sum_lvl1_ff\[85\]
*1764 mac1\.sum_lvl1_ff\[86\]
*1765 mac1\.sum_lvl1_ff\[87\]
*1766 mac1\.sum_lvl1_ff\[8\]
*1767 mac1\.sum_lvl1_ff\[9\]
*1768 mac1\.sum_lvl2_ff\[0\]
*1769 mac1\.sum_lvl2_ff\[10\]
*1770 mac1\.sum_lvl2_ff\[11\]
*1771 mac1\.sum_lvl2_ff\[12\]
*1772 mac1\.sum_lvl2_ff\[13\]
*1773 mac1\.sum_lvl2_ff\[14\]
*1774 mac1\.sum_lvl2_ff\[15\]
*1775 mac1\.sum_lvl2_ff\[19\]
*1776 mac1\.sum_lvl2_ff\[1\]
*1777 mac1\.sum_lvl2_ff\[20\]
*1778 mac1\.sum_lvl2_ff\[21\]
*1779 mac1\.sum_lvl2_ff\[22\]
*1780 mac1\.sum_lvl2_ff\[23\]
*1781 mac1\.sum_lvl2_ff\[24\]
*1782 mac1\.sum_lvl2_ff\[25\]
*1783 mac1\.sum_lvl2_ff\[26\]
*1784 mac1\.sum_lvl2_ff\[27\]
*1785 mac1\.sum_lvl2_ff\[28\]
*1786 mac1\.sum_lvl2_ff\[29\]
*1787 mac1\.sum_lvl2_ff\[2\]
*1788 mac1\.sum_lvl2_ff\[30\]
*1789 mac1\.sum_lvl2_ff\[31\]
*1790 mac1\.sum_lvl2_ff\[32\]
*1791 mac1\.sum_lvl2_ff\[33\]
*1792 mac1\.sum_lvl2_ff\[34\]
*1793 mac1\.sum_lvl2_ff\[38\]
*1794 mac1\.sum_lvl2_ff\[39\]
*1795 mac1\.sum_lvl2_ff\[3\]
*1796 mac1\.sum_lvl2_ff\[40\]
*1797 mac1\.sum_lvl2_ff\[41\]
*1798 mac1\.sum_lvl2_ff\[42\]
*1799 mac1\.sum_lvl2_ff\[43\]
*1800 mac1\.sum_lvl2_ff\[44\]
*1801 mac1\.sum_lvl2_ff\[45\]
*1802 mac1\.sum_lvl2_ff\[46\]
*1803 mac1\.sum_lvl2_ff\[47\]
*1804 mac1\.sum_lvl2_ff\[48\]
*1805 mac1\.sum_lvl2_ff\[49\]
*1806 mac1\.sum_lvl2_ff\[4\]
*1807 mac1\.sum_lvl2_ff\[50\]
*1808 mac1\.sum_lvl2_ff\[51\]
*1809 mac1\.sum_lvl2_ff\[52\]
*1810 mac1\.sum_lvl2_ff\[53\]
*1811 mac1\.sum_lvl2_ff\[5\]
*1812 mac1\.sum_lvl2_ff\[6\]
*1813 mac1\.sum_lvl2_ff\[7\]
*1814 mac1\.sum_lvl2_ff\[8\]
*1815 mac1\.sum_lvl2_ff\[9\]
*1816 mac1\.sum_lvl3_ff\[0\]
*1817 mac1\.sum_lvl3_ff\[10\]
*1818 mac1\.sum_lvl3_ff\[11\]
*1819 mac1\.sum_lvl3_ff\[12\]
*1820 mac1\.sum_lvl3_ff\[13\]
*1821 mac1\.sum_lvl3_ff\[14\]
*1822 mac1\.sum_lvl3_ff\[15\]
*1823 mac1\.sum_lvl3_ff\[1\]
*1824 mac1\.sum_lvl3_ff\[20\]
*1825 mac1\.sum_lvl3_ff\[21\]
*1826 mac1\.sum_lvl3_ff\[22\]
*1827 mac1\.sum_lvl3_ff\[23\]
*1828 mac1\.sum_lvl3_ff\[24\]
*1829 mac1\.sum_lvl3_ff\[25\]
*1830 mac1\.sum_lvl3_ff\[26\]
*1831 mac1\.sum_lvl3_ff\[27\]
*1832 mac1\.sum_lvl3_ff\[28\]
*1833 mac1\.sum_lvl3_ff\[29\]
*1834 mac1\.sum_lvl3_ff\[2\]
*1835 mac1\.sum_lvl3_ff\[30\]
*1836 mac1\.sum_lvl3_ff\[31\]
*1837 mac1\.sum_lvl3_ff\[32\]
*1838 mac1\.sum_lvl3_ff\[33\]
*1839 mac1\.sum_lvl3_ff\[34\]
*1840 mac1\.sum_lvl3_ff\[35\]
*1841 mac1\.sum_lvl3_ff\[3\]
*1842 mac1\.sum_lvl3_ff\[4\]
*1843 mac1\.sum_lvl3_ff\[5\]
*1844 mac1\.sum_lvl3_ff\[6\]
*1845 mac1\.sum_lvl3_ff\[7\]
*1846 mac1\.sum_lvl3_ff\[8\]
*1847 mac1\.sum_lvl3_ff\[9\]
*1848 net1
*1849 net10
*1850 net100
*1851 net101
*1852 net102
*1853 net103
*1854 net104
*1855 net105
*1856 net106
*1857 net107
*1858 net108
*1859 net109
*1860 net11
*1861 net110
*1862 net111
*1863 net112
*1864 net113
*1865 net114
*1866 net115
*1867 net116
*1868 net117
*1869 net118
*1870 net119
*1871 net12
*1872 net120
*1873 net121
*1874 net122
*1875 net123
*1876 net124
*1877 net125
*1878 net126
*1879 net127
*1880 net128
*1881 net129
*1882 net13
*1883 net130
*1884 net131
*1885 net132
*1886 net133
*1887 net134
*1888 net135
*1889 net136
*1890 net137
*1891 net138
*1892 net139
*1893 net14
*1894 net140
*1895 net141
*1896 net142
*1897 net143
*1898 net144
*1899 net145
*1900 net146
*1901 net147
*1902 net148
*1903 net149
*1904 net15
*1905 net150
*1906 net151
*1907 net152
*1908 net153
*1909 net154
*1910 net155
*1911 net156
*1912 net157
*1913 net158
*1914 net159
*1915 net16
*1916 net160
*1917 net161
*1918 net162
*1919 net163
*1920 net164
*1921 net165
*1922 net166
*1923 net167
*1924 net168
*1925 net169
*1926 net17
*1927 net170
*1928 net171
*1929 net172
*1930 net173
*1931 net174
*1932 net175
*1933 net176
*1934 net177
*1935 net178
*1936 net179
*1937 net18
*1938 net180
*1939 net181
*1940 net182
*1941 net183
*1942 net184
*1943 net185
*1944 net186
*1945 net187
*1946 net188
*1947 net189
*1948 net19
*1949 net190
*1950 net191
*1951 net192
*1952 net193
*1953 net194
*1954 net195
*1955 net196
*1956 net197
*1957 net198
*1958 net199
*1959 net2
*1960 net20
*1961 net200
*1962 net201
*1963 net202
*1964 net203
*1965 net204
*1966 net205
*1967 net206
*1968 net207
*1969 net208
*1970 net209
*1971 net21
*1972 net210
*1973 net211
*1974 net212
*1975 net213
*1976 net214
*1977 net215
*1978 net216
*1979 net217
*1980 net218
*1981 net219
*1982 net22
*1983 net220
*1984 net221
*1985 net222
*1986 net223
*1987 net224
*1988 net225
*1989 net226
*1990 net227
*1991 net228
*1992 net229
*1993 net23
*1994 net230
*1995 net231
*1996 net232
*1997 net233
*1998 net234
*1999 net235
*2000 net236