* NGSPICE file created from heichips25_template.ext - technology: ihp-sg13g2

* Black-box entry subcircuit for sg13g2_decap_8 abstract view
.subckt sg13g2_decap_8 VDD VSS
.ends

* Black-box entry subcircuit for sg13g2_dfrbpq_1 abstract view
.subckt sg13g2_dfrbpq_1 RESET_B VSS VDD D Q CLK
.ends

* Black-box entry subcircuit for sg13g2_buf_1 abstract view
.subckt sg13g2_buf_1 A X VDD VSS
.ends

* Black-box entry subcircuit for sg13g2_o21ai_1 abstract view
.subckt sg13g2_o21ai_1 B1 VDD Y VSS A1 A2
.ends

* Black-box entry subcircuit for sg13g2_nand2_1 abstract view
.subckt sg13g2_nand2_1 Y A B VDD VSS
.ends

* Black-box entry subcircuit for sg13g2_fill_2 abstract view
.subckt sg13g2_fill_2 VDD VSS
.ends

* Black-box entry subcircuit for sg13g2_decap_4 abstract view
.subckt sg13g2_decap_4 VDD VSS
.ends

* Black-box entry subcircuit for sg13g2_buf_8 abstract view
.subckt sg13g2_buf_8 A X VDD VSS
.ends

* Black-box entry subcircuit for sg13g2_fill_1 abstract view
.subckt sg13g2_fill_1 VDD VSS
.ends

* Black-box entry subcircuit for sg13g2_dlygate4sd3_1 abstract view
.subckt sg13g2_dlygate4sd3_1 A VDD VSS X
.ends

* Black-box entry subcircuit for sg13g2_dfrbpq_2 abstract view
.subckt sg13g2_dfrbpq_2 RESET_B VSS VDD D Q CLK
.ends

* Black-box entry subcircuit for sg13g2_tielo abstract view
.subckt sg13g2_tielo VDD VSS L_LO
.ends

* Black-box entry subcircuit for sg13g2_tiehi abstract view
.subckt sg13g2_tiehi VDD VSS L_HI
.ends

* Black-box entry subcircuit for sg13g2_xor2_1 abstract view
.subckt sg13g2_xor2_1 B A X VDD VSS
.ends

* Black-box entry subcircuit for sg13g2_xnor2_1 abstract view
.subckt sg13g2_xnor2_1 Y A B VDD VSS
.ends

* Black-box entry subcircuit for sg13g2_inv_1 abstract view
.subckt sg13g2_inv_1 VDD Y A VSS
.ends

* Black-box entry subcircuit for sg13g2_and2_1 abstract view
.subckt sg13g2_and2_1 A B X VDD VSS
.ends

* Black-box entry subcircuit for sg13g2_buf_2 abstract view
.subckt sg13g2_buf_2 A X VDD VSS
.ends

* Black-box entry subcircuit for sg13g2_nor2_1 abstract view
.subckt sg13g2_nor2_1 A B Y VDD VSS
.ends

* Black-box entry subcircuit for sg13g2_nand2b_1 abstract view
.subckt sg13g2_nand2b_1 Y B A_N VDD VSS
.ends

* Black-box entry subcircuit for sg13g2_or2_1 abstract view
.subckt sg13g2_or2_1 VSS VDD X B A
.ends

* Black-box entry subcircuit for sg13g2_a21o_2 abstract view
.subckt sg13g2_a21o_2 A2 A1 B1 X VDD VSS
.ends

.subckt heichips25_template VGND VPWR clk ena rst_n ui_in[0] ui_in[1] ui_in[2] ui_in[3]
+ ui_in[4] ui_in[5] ui_in[6] ui_in[7] uio_in[0] uio_in[1] uio_in[2] uio_in[3] uio_in[4]
+ uio_in[5] uio_in[6] uio_in[7] uio_oe[0] uio_oe[1] uio_oe[2] uio_oe[3] uio_oe[4]
+ uio_oe[5] uio_oe[6] uio_oe[7] uio_out[0] uio_out[1] uio_out[2] uio_out[3] uio_out[4]
+ uio_out[5] uio_out[6] uio_out[7] uo_out[0] uo_out[1] uo_out[2] uo_out[3] uo_out[4]
+ uo_out[5] uo_out[6] uo_out[7]
XFILLER_27_417 VPWR VGND sg13g2_decap_8
XFILLER_36_940 VPWR VGND sg13g2_decap_8
XFILLER_39_288 VPWR VGND sg13g2_decap_8
XFILLER_35_494 VPWR VGND sg13g2_decap_8
XFILLER_10_317 VPWR VGND sg13g2_decap_8
XFILLER_22_155 VPWR VGND sg13g2_decap_8
XFILLER_23_667 VPWR VGND sg13g2_decap_8
XFILLER_7_7 VPWR VGND sg13g2_decap_8
XFILLER_46_704 VPWR VGND sg13g2_decap_8
XFILLER_33_409 VPWR VGND sg13g2_decap_8
X_501_ net82 VGND VPWR _062_ mac2.products_ff\[102\] clknet_5_30__leaf_clk sg13g2_dfrbpq_1
XFILLER_42_932 VPWR VGND sg13g2_decap_8
XFILLER_14_623 VPWR VGND sg13g2_decap_8
X_432_ net152 _126_ VPWR VGND sg13g2_buf_1
XFILLER_26_74 VPWR VGND sg13g2_decap_8
XFILLER_27_995 VPWR VGND sg13g2_decap_8
XFILLER_26_494 VPWR VGND sg13g2_decap_8
XFILLER_13_144 VPWR VGND sg13g2_decap_8
X_363_ net171 VPWR _019_ VGND _172_ _174_ sg13g2_o21ai_1
XFILLER_41_475 VPWR VGND sg13g2_decap_8
XFILLER_9_137 VPWR VGND sg13g2_decap_8
X_294_ _173_ net170 mac2.sum_lvl3_ff\[1\] VPWR VGND sg13g2_nand2_1
XFILLER_42_73 VPWR VGND sg13g2_decap_8
XFILLER_10_851 VPWR VGND sg13g2_decap_8
XFILLER_6_844 VPWR VGND sg13g2_decap_8
XFILLER_5_310 VPWR VGND sg13g2_decap_8
XFILLER_5_387 VPWR VGND sg13g2_decap_8
XFILLER_49_520 VPWR VGND sg13g2_decap_8
XFILLER_1_593 VPWR VGND sg13g2_decap_8
XFILLER_3_1007 VPWR VGND sg13g2_decap_8
XFILLER_49_597 VPWR VGND sg13g2_decap_8
XFILLER_37_737 VPWR VGND sg13g2_decap_8
XFILLER_17_483 VPWR VGND sg13g2_decap_8
XFILLER_18_984 VPWR VGND sg13g2_decap_8
XFILLER_32_431 VPWR VGND sg13g2_decap_8
XFILLER_33_965 VPWR VGND sg13g2_decap_8
XFILLER_20_626 VPWR VGND sg13g2_decap_8
XFILLER_9_682 VPWR VGND sg13g2_decap_8
XFILLER_41_1002 VPWR VGND sg13g2_decap_8
XFILLER_27_203 VPWR VGND sg13g2_decap_8
XFILLER_27_247 VPWR VGND sg13g2_decap_8
XFILLER_42_206 VPWR VGND sg13g2_decap_8
XFILLER_24_965 VPWR VGND sg13g2_decap_8
XFILLER_35_280 VPWR VGND sg13g2_decap_8
XFILLER_11_648 VPWR VGND sg13g2_decap_8
XFILLER_12_76 VPWR VGND sg13g2_decap_8
XFILLER_3_825 VPWR VGND sg13g2_decap_8
XFILLER_5_4 VPWR VGND sg13g2_decap_8
XFILLER_2_335 VPWR VGND sg13g2_decap_8
XFILLER_46_501 VPWR VGND sg13g2_decap_8
XFILLER_19_748 VPWR VGND sg13g2_decap_8
XFILLER_46_578 VPWR VGND sg13g2_decap_8
XFILLER_15_932 VPWR VGND sg13g2_decap_8
XFILLER_27_792 VPWR VGND sg13g2_decap_8
XFILLER_18_1026 VPWR VGND sg13g2_fill_2
X_415_ net57 _109_ VPWR VGND sg13g2_buf_1
XFILLER_30_913 VPWR VGND sg13g2_decap_8
XFILLER_14_475 VPWR VGND sg13g2_decap_4
XFILLER_14_497 VPWR VGND sg13g2_decap_8
X_346_ _203_ net134 net98 VPWR VGND sg13g2_nand2_1
XFILLER_41_272 VPWR VGND sg13g2_decap_8
X_277_ _164_ net187 net113 VPWR VGND sg13g2_nand2_1
XFILLER_6_641 VPWR VGND sg13g2_decap_8
XFILLER_5_140 VPWR VGND sg13g2_decap_8
XFILLER_2_880 VPWR VGND sg13g2_decap_8
XFILLER_25_1019 VPWR VGND sg13g2_decap_8
XFILLER_1_390 VPWR VGND sg13g2_decap_8
XFILLER_37_534 VPWR VGND sg13g2_decap_8
XFILLER_49_394 VPWR VGND sg13g2_decap_8
XFILLER_18_781 VPWR VGND sg13g2_decap_8
XFILLER_25_718 VPWR VGND sg13g2_decap_8
XFILLER_33_762 VPWR VGND sg13g2_decap_8
XFILLER_20_423 VPWR VGND sg13g2_decap_8
XFILLER_21_946 VPWR VGND sg13g2_decap_8
Xclkbuf_4_12_0_clk clknet_0_clk clknet_4_12_0_clk VPWR VGND sg13g2_buf_8
XFILLER_28_567 VPWR VGND sg13g2_decap_8
XFILLER_16_718 VPWR VGND sg13g2_decap_8
XFILLER_43_559 VPWR VGND sg13g2_decap_8
XFILLER_24_762 VPWR VGND sg13g2_decap_8
XFILLER_12_935 VPWR VGND sg13g2_decap_8
XFILLER_11_456 VPWR VGND sg13g2_decap_8
XFILLER_20_990 VPWR VGND sg13g2_decap_8
XFILLER_3_622 VPWR VGND sg13g2_decap_8
XFILLER_3_699 VPWR VGND sg13g2_decap_8
XFILLER_47_854 VPWR VGND sg13g2_decap_8
XFILLER_46_331 VPWR VGND sg13g2_decap_8
XFILLER_0_35 VPWR VGND sg13g2_decap_8
XFILLER_19_545 VPWR VGND sg13g2_decap_8
XFILLER_34_559 VPWR VGND sg13g2_decap_8
XFILLER_9_11 VPWR VGND sg13g2_decap_4
XFILLER_14_272 VPWR VGND sg13g2_decap_8
XFILLER_30_710 VPWR VGND sg13g2_decap_8
XFILLER_9_55 VPWR VGND sg13g2_decap_8
X_329_ _192_ net131 net58 VPWR VGND sg13g2_nand2_1
XFILLER_30_787 VPWR VGND sg13g2_decap_8
XFILLER_29_0 VPWR VGND sg13g2_decap_8
XFILLER_38_810 VPWR VGND sg13g2_decap_8
XFILLER_49_191 VPWR VGND sg13g2_decap_8
XFILLER_25_504 VPWR VGND sg13g2_fill_2
XFILLER_25_515 VPWR VGND sg13g2_decap_8
XFILLER_38_887 VPWR VGND sg13g2_decap_8
XFILLER_37_397 VPWR VGND sg13g2_decap_8
XFILLER_20_242 VPWR VGND sg13g2_decap_8
XFILLER_21_743 VPWR VGND sg13g2_decap_8
XFILLER_4_419 VPWR VGND sg13g2_fill_2
XFILLER_4_408 VPWR VGND sg13g2_fill_2
XFILLER_0_658 VPWR VGND sg13g2_decap_8
XFILLER_48_629 VPWR VGND sg13g2_decap_8
XFILLER_18_53 VPWR VGND sg13g2_decap_8
XFILLER_29_876 VPWR VGND sg13g2_decap_8
XFILLER_44_857 VPWR VGND sg13g2_decap_8
XFILLER_43_323 VPWR VGND sg13g2_decap_8
XFILLER_28_397 VPWR VGND sg13g2_decap_8
XFILLER_12_732 VPWR VGND sg13g2_decap_8
XFILLER_8_769 VPWR VGND sg13g2_decap_8
XFILLER_11_297 VPWR VGND sg13g2_decap_8
XFILLER_7_279 VPWR VGND sg13g2_decap_8
XFILLER_4_920 VPWR VGND sg13g2_decap_8
XFILLER_4_997 VPWR VGND sg13g2_decap_8
XFILLER_3_496 VPWR VGND sg13g2_decap_8
XFILLER_3_485 VPWR VGND sg13g2_fill_2
XFILLER_38_117 VPWR VGND sg13g2_decap_8
XFILLER_47_651 VPWR VGND sg13g2_decap_8
XFILLER_19_353 VPWR VGND sg13g2_decap_8
XFILLER_19_364 VPWR VGND sg13g2_fill_1
XFILLER_35_802 VPWR VGND sg13g2_decap_8
XFILLER_46_194 VPWR VGND sg13g2_decap_8
XFILLER_35_879 VPWR VGND sg13g2_decap_8
XFILLER_15_570 VPWR VGND sg13g2_decap_8
XFILLER_22_529 VPWR VGND sg13g2_decap_8
XFILLER_30_584 VPWR VGND sg13g2_decap_8
XFILLER_6_290 VPWR VGND sg13g2_decap_8
XFILLER_29_106 VPWR VGND sg13g2_decap_8
XFILLER_26_802 VPWR VGND sg13g2_decap_8
XFILLER_25_323 VPWR VGND sg13g2_decap_8
XFILLER_38_684 VPWR VGND sg13g2_decap_8
XFILLER_26_879 VPWR VGND sg13g2_decap_8
XFILLER_40_326 VPWR VGND sg13g2_decap_4
XFILLER_41_827 VPWR VGND sg13g2_decap_8
XFILLER_5_717 VPWR VGND sg13g2_decap_8
XFILLER_20_32 VPWR VGND sg13g2_decap_8
XFILLER_1_901 VPWR VGND sg13g2_decap_8
XFILLER_49_905 VPWR VGND sg13g2_decap_8
XFILLER_0_455 VPWR VGND sg13g2_decap_8
XFILLER_1_978 VPWR VGND sg13g2_decap_8
XFILLER_48_426 VPWR VGND sg13g2_decap_8
Xhold30 DP_1.matrix\[55\] VPWR VGND net54 sg13g2_dlygate4sd3_1
Xhold41 DP_1.matrix\[73\] VPWR VGND net91 sg13g2_dlygate4sd3_1
Xhold52 DP_3.matrix\[46\] VPWR VGND net102 sg13g2_dlygate4sd3_1
Xhold63 mac1.products_ff\[68\] VPWR VGND net113 sg13g2_dlygate4sd3_1
Xhold74 _028_ VPWR VGND net124 sg13g2_dlygate4sd3_1
Xhold85 DP_2.matrix\[63\] VPWR VGND net135 sg13g2_dlygate4sd3_1
Xhold96 _010_ VPWR VGND net146 sg13g2_dlygate4sd3_1
XFILLER_29_673 VPWR VGND sg13g2_decap_8
XFILLER_17_824 VPWR VGND sg13g2_decap_8
XFILLER_44_654 VPWR VGND sg13g2_decap_8
XFILLER_43_120 VPWR VGND sg13g2_decap_8
XFILLER_16_334 VPWR VGND sg13g2_decap_8
X_594_ net72 VGND VPWR _134_ DP_4.matrix\[45\] clknet_5_13__leaf_clk sg13g2_dfrbpq_2
XFILLER_32_816 VPWR VGND sg13g2_decap_8
XFILLER_31_315 VPWR VGND sg13g2_decap_8
XFILLER_8_566 VPWR VGND sg13g2_decap_8
XFILLER_6_67 VPWR VGND sg13g2_decap_8
XFILLER_4_794 VPWR VGND sg13g2_decap_8
XFILLER_6_1005 VPWR VGND sg13g2_decap_8
XFILLER_20_4 VPWR VGND sg13g2_decap_8
XFILLER_48_993 VPWR VGND sg13g2_decap_8
XFILLER_19_172 VPWR VGND sg13g2_decap_8
XFILLER_22_304 VPWR VGND sg13g2_fill_1
XFILLER_23_849 VPWR VGND sg13g2_decap_8
XFILLER_35_676 VPWR VGND sg13g2_decap_8
XFILLER_31_860 VPWR VGND sg13g2_decap_8
XFILLER_1_208 VPWR VGND sg13g2_decap_8
XFILLER_44_1011 VPWR VGND sg13g2_decap_8
Xheichips25_template_10 VPWR VGND uio_out[5] sg13g2_tielo
Xheichips25_template_21 VPWR VGND uio_oe[4] sg13g2_tiehi
XFILLER_17_109 VPWR VGND sg13g2_decap_8
XFILLER_45_429 VPWR VGND sg13g2_decap_8
XFILLER_14_805 VPWR VGND sg13g2_decap_8
XFILLER_26_676 VPWR VGND sg13g2_decap_8
XFILLER_41_624 VPWR VGND sg13g2_decap_8
XFILLER_15_54 VPWR VGND sg13g2_decap_4
XFILLER_9_308 VPWR VGND sg13g2_fill_1
XFILLER_40_145 VPWR VGND sg13g2_decap_8
XFILLER_22_893 VPWR VGND sg13g2_decap_8
XFILLER_31_42 VPWR VGND sg13g2_decap_8
XFILLER_49_702 VPWR VGND sg13g2_decap_8
XFILLER_0_252 VPWR VGND sg13g2_decap_8
XFILLER_1_775 VPWR VGND sg13g2_decap_8
XFILLER_48_212 VPWR VGND sg13g2_decap_8
XFILLER_48_223 VPWR VGND sg13g2_fill_1
XFILLER_49_779 VPWR VGND sg13g2_decap_8
XFILLER_37_919 VPWR VGND sg13g2_decap_8
XFILLER_17_621 VPWR VGND sg13g2_decap_8
XFILLER_29_481 VPWR VGND sg13g2_decap_8
XFILLER_16_120 VPWR VGND sg13g2_fill_1
X_577_ net70 VGND VPWR _117_ DP_3.matrix\[46\] clknet_5_14__leaf_clk sg13g2_dfrbpq_1
XFILLER_45_996 VPWR VGND sg13g2_decap_8
XFILLER_44_451 VPWR VGND sg13g2_decap_8
XFILLER_17_698 VPWR VGND sg13g2_decap_8
XFILLER_32_613 VPWR VGND sg13g2_decap_8
XFILLER_31_112 VPWR VGND sg13g2_decap_8
XFILLER_20_808 VPWR VGND sg13g2_decap_8
XFILLER_13_893 VPWR VGND sg13g2_decap_8
XFILLER_31_189 VPWR VGND sg13g2_decap_8
XFILLER_8_341 VPWR VGND sg13g2_fill_1
Xclkbuf_5_17__f_clk clknet_4_8_0_clk clknet_5_17__leaf_clk VPWR VGND sg13g2_buf_8
XFILLER_9_864 VPWR VGND sg13g2_decap_8
XFILLER_4_591 VPWR VGND sg13g2_decap_8
XFILLER_48_790 VPWR VGND sg13g2_decap_8
XFILLER_36_996 VPWR VGND sg13g2_decap_8
XFILLER_22_134 VPWR VGND sg13g2_decap_8
XFILLER_23_646 VPWR VGND sg13g2_decap_8
X_500_ net80 VGND VPWR _061_ mac2.products_ff\[86\] clknet_5_14__leaf_clk sg13g2_dfrbpq_1
XFILLER_45_248 VPWR VGND sg13g2_decap_8
XFILLER_42_911 VPWR VGND sg13g2_decap_8
XFILLER_14_602 VPWR VGND sg13g2_decap_8
X_431_ net101 _125_ VPWR VGND sg13g2_buf_1
XFILLER_26_53 VPWR VGND sg13g2_decap_8
XFILLER_26_473 VPWR VGND sg13g2_decap_8
XFILLER_27_974 VPWR VGND sg13g2_decap_8
X_362_ _213_ _212_ _057_ VPWR VGND sg13g2_xor2_1
XFILLER_13_123 VPWR VGND sg13g2_decap_8
XFILLER_42_988 VPWR VGND sg13g2_decap_8
XFILLER_9_116 VPWR VGND sg13g2_decap_8
XFILLER_14_679 VPWR VGND sg13g2_decap_8
XFILLER_41_454 VPWR VGND sg13g2_decap_8
XFILLER_42_52 VPWR VGND sg13g2_decap_8
XFILLER_10_830 VPWR VGND sg13g2_decap_8
XFILLER_13_189 VPWR VGND sg13g2_decap_8
X_293_ _172_ net201 net115 VPWR VGND sg13g2_nand2_1
XFILLER_22_690 VPWR VGND sg13g2_decap_8
XFILLER_6_823 VPWR VGND sg13g2_decap_8
XFILLER_5_366 VPWR VGND sg13g2_decap_8
XFILLER_3_46 VPWR VGND sg13g2_decap_8
XFILLER_1_572 VPWR VGND sg13g2_decap_8
XFILLER_49_576 VPWR VGND sg13g2_decap_8
XFILLER_37_716 VPWR VGND sg13g2_decap_8
XFILLER_18_963 VPWR VGND sg13g2_decap_8
XFILLER_36_237 VPWR VGND sg13g2_decap_8
XFILLER_17_462 VPWR VGND sg13g2_decap_8
XFILLER_45_793 VPWR VGND sg13g2_decap_8
XFILLER_32_421 VPWR VGND sg13g2_fill_2
XFILLER_33_944 VPWR VGND sg13g2_decap_8
XFILLER_20_605 VPWR VGND sg13g2_decap_8
XFILLER_32_487 VPWR VGND sg13g2_decap_8
XFILLER_34_1021 VPWR VGND sg13g2_decap_8
XFILLER_9_661 VPWR VGND sg13g2_decap_8
XFILLER_13_690 VPWR VGND sg13g2_decap_8
XFILLER_28_749 VPWR VGND sg13g2_decap_8
XFILLER_24_944 VPWR VGND sg13g2_decap_8
XFILLER_36_793 VPWR VGND sg13g2_decap_8
XFILLER_11_627 VPWR VGND sg13g2_decap_8
XFILLER_23_476 VPWR VGND sg13g2_decap_4
XFILLER_10_159 VPWR VGND sg13g2_decap_8
XFILLER_12_11 VPWR VGND sg13g2_decap_8
XFILLER_3_804 VPWR VGND sg13g2_decap_8
XFILLER_12_55 VPWR VGND sg13g2_decap_8
XFILLER_2_314 VPWR VGND sg13g2_decap_8
XFILLER_19_727 VPWR VGND sg13g2_decap_8
XFILLER_46_557 VPWR VGND sg13g2_decap_8
XFILLER_15_911 VPWR VGND sg13g2_decap_8
XFILLER_27_771 VPWR VGND sg13g2_decap_8
X_414_ net157 _108_ VPWR VGND sg13g2_buf_1
XFILLER_14_454 VPWR VGND sg13g2_decap_8
XFILLER_15_988 VPWR VGND sg13g2_decap_8
XFILLER_18_1005 VPWR VGND sg13g2_decap_8
XFILLER_41_251 VPWR VGND sg13g2_decap_8
XFILLER_42_785 VPWR VGND sg13g2_decap_8
X_345_ _202_ net129 net55 VPWR VGND sg13g2_nand2_1
XFILLER_41_262 VPWR VGND sg13g2_fill_2
X_276_ net111 mac1.products_ff\[34\] _004_ VPWR VGND sg13g2_xor2_1
XFILLER_30_969 VPWR VGND sg13g2_decap_8
XFILLER_6_620 VPWR VGND sg13g2_decap_8
XFILLER_6_697 VPWR VGND sg13g2_decap_8
XFILLER_5_196 VPWR VGND sg13g2_decap_8
XFILLER_49_373 VPWR VGND sg13g2_decap_8
XFILLER_37_513 VPWR VGND sg13g2_decap_8
XFILLER_18_760 VPWR VGND sg13g2_decap_8
XFILLER_45_590 VPWR VGND sg13g2_decap_8
XFILLER_24_229 VPWR VGND sg13g2_decap_8
XFILLER_33_741 VPWR VGND sg13g2_decap_8
XFILLER_20_402 VPWR VGND sg13g2_decap_8
XFILLER_21_925 VPWR VGND sg13g2_decap_8
XFILLER_32_295 VPWR VGND sg13g2_decap_8
XFILLER_20_479 VPWR VGND sg13g2_decap_8
XFILLER_9_491 VPWR VGND sg13g2_decap_8
XFILLER_28_546 VPWR VGND sg13g2_decap_8
XFILLER_43_538 VPWR VGND sg13g2_decap_8
XFILLER_36_590 VPWR VGND sg13g2_decap_8
XFILLER_12_914 VPWR VGND sg13g2_decap_8
XFILLER_23_240 VPWR VGND sg13g2_decap_8
XFILLER_24_741 VPWR VGND sg13g2_decap_8
XFILLER_11_435 VPWR VGND sg13g2_decap_8
XFILLER_23_87 VPWR VGND sg13g2_decap_8
XFILLER_3_601 VPWR VGND sg13g2_decap_8
XFILLER_3_678 VPWR VGND sg13g2_decap_8
XFILLER_47_833 VPWR VGND sg13g2_decap_8
XFILLER_48_84 VPWR VGND sg13g2_decap_8
XFILLER_46_310 VPWR VGND sg13g2_decap_8
XFILLER_0_14 VPWR VGND sg13g2_decap_8
XFILLER_19_535 VPWR VGND sg13g2_fill_1
XFILLER_46_387 VPWR VGND sg13g2_decap_8
XFILLER_34_538 VPWR VGND sg13g2_decap_8
XFILLER_42_582 VPWR VGND sg13g2_decap_8
XFILLER_14_251 VPWR VGND sg13g2_decap_8
XFILLER_15_785 VPWR VGND sg13g2_decap_8
XFILLER_30_766 VPWR VGND sg13g2_decap_8
X_328_ _191_ _190_ _035_ VPWR VGND sg13g2_xor2_1
X_259_ _153_ mac1.total_sum\[1\] mac2.total_sum\[1\] VPWR VGND sg13g2_nand2_1
XFILLER_11_991 VPWR VGND sg13g2_decap_8
XFILLER_7_995 VPWR VGND sg13g2_decap_8
XFILLER_9_1025 VPWR VGND sg13g2_decap_4
XFILLER_49_170 VPWR VGND sg13g2_decap_8
XFILLER_38_866 VPWR VGND sg13g2_decap_8
XFILLER_37_376 VPWR VGND sg13g2_decap_8
XFILLER_21_722 VPWR VGND sg13g2_decap_8
XFILLER_20_221 VPWR VGND sg13g2_decap_8
XFILLER_21_799 VPWR VGND sg13g2_decap_8
XFILLER_20_298 VPWR VGND sg13g2_decap_8
XFILLER_0_637 VPWR VGND sg13g2_decap_8
XFILLER_48_608 VPWR VGND sg13g2_decap_8
XFILLER_18_32 VPWR VGND sg13g2_decap_8
XFILLER_29_855 VPWR VGND sg13g2_decap_8
XFILLER_44_836 VPWR VGND sg13g2_decap_8
XFILLER_43_302 VPWR VGND sg13g2_decap_8
XFILLER_16_527 VPWR VGND sg13g2_decap_4
XFILLER_18_98 VPWR VGND sg13g2_decap_8
XFILLER_28_376 VPWR VGND sg13g2_decap_8
XFILLER_43_379 VPWR VGND sg13g2_decap_8
XFILLER_12_711 VPWR VGND sg13g2_decap_8
XFILLER_34_75 VPWR VGND sg13g2_decap_8
XFILLER_7_203 VPWR VGND sg13g2_decap_8
XFILLER_12_788 VPWR VGND sg13g2_decap_8
XFILLER_8_748 VPWR VGND sg13g2_decap_8
XFILLER_11_276 VPWR VGND sg13g2_decap_8
XFILLER_7_258 VPWR VGND sg13g2_decap_8
XFILLER_4_976 VPWR VGND sg13g2_decap_8
XFILLER_3_464 VPWR VGND sg13g2_decap_8
XFILLER_47_630 VPWR VGND sg13g2_decap_8
XFILLER_46_140 VPWR VGND sg13g2_decap_8
Xclkbuf_4_11_0_clk clknet_0_clk clknet_4_11_0_clk VPWR VGND sg13g2_buf_8
XFILLER_35_858 VPWR VGND sg13g2_decap_8
XFILLER_22_508 VPWR VGND sg13g2_decap_8
XFILLER_34_379 VPWR VGND sg13g2_fill_1
XFILLER_30_563 VPWR VGND sg13g2_decap_8
XFILLER_7_792 VPWR VGND sg13g2_decap_8
XFILLER_41_0 VPWR VGND sg13g2_decap_8
XFILLER_38_663 VPWR VGND sg13g2_decap_8
XFILLER_37_184 VPWR VGND sg13g2_decap_8
XFILLER_26_858 VPWR VGND sg13g2_decap_8
XFILLER_41_806 VPWR VGND sg13g2_decap_8
XFILLER_40_305 VPWR VGND sg13g2_decap_8
XFILLER_21_596 VPWR VGND sg13g2_decap_8
XFILLER_20_11 VPWR VGND sg13g2_decap_8
XFILLER_20_88 VPWR VGND sg13g2_decap_8
XFILLER_0_434 VPWR VGND sg13g2_decap_8
XFILLER_1_957 VPWR VGND sg13g2_decap_8
XFILLER_48_405 VPWR VGND sg13g2_fill_1
Xhold20 DP_2.matrix\[37\] VPWR VGND net44 sg13g2_dlygate4sd3_1
Xhold31 DP_1.matrix\[19\] VPWR VGND net55 sg13g2_dlygate4sd3_1
Xhold53 mac2.products_ff\[85\] VPWR VGND net103 sg13g2_dlygate4sd3_1
Xhold42 DP_1.matrix\[64\] VPWR VGND net92 sg13g2_dlygate4sd3_1
Xhold64 _006_ VPWR VGND net114 sg13g2_dlygate4sd3_1
Xhold75 DP_3.matrix\[45\] VPWR VGND net125 sg13g2_dlygate4sd3_1
XFILLER_17_803 VPWR VGND sg13g2_decap_8
XFILLER_21_1023 VPWR VGND sg13g2_decap_4
Xhold97 DP_1.matrix\[9\] VPWR VGND net147 sg13g2_dlygate4sd3_1
XFILLER_29_652 VPWR VGND sg13g2_decap_8
Xhold86 mac2.sum_lvl1_ff\[24\] VPWR VGND net136 sg13g2_dlygate4sd3_1
XFILLER_44_633 VPWR VGND sg13g2_decap_8
XFILLER_16_324 VPWR VGND sg13g2_decap_4
X_593_ net70 VGND VPWR _133_ DP_4.matrix\[37\] clknet_5_11__leaf_clk sg13g2_dfrbpq_1
XFILLER_28_195 VPWR VGND sg13g2_decap_4
XFILLER_24_390 VPWR VGND sg13g2_decap_8
XFILLER_8_545 VPWR VGND sg13g2_decap_8
XFILLER_40_883 VPWR VGND sg13g2_decap_8
XFILLER_6_46 VPWR VGND sg13g2_decap_8
XFILLER_4_773 VPWR VGND sg13g2_decap_8
XFILLER_6_1028 VPWR VGND sg13g2_fill_1
XFILLER_13_4 VPWR VGND sg13g2_decap_8
XFILLER_48_972 VPWR VGND sg13g2_decap_8
XFILLER_19_151 VPWR VGND sg13g2_decap_8
XFILLER_35_655 VPWR VGND sg13g2_decap_8
XFILLER_23_828 VPWR VGND sg13g2_decap_8
XFILLER_34_187 VPWR VGND sg13g2_decap_8
Xheichips25_template_11 VPWR VGND uio_out[6] sg13g2_tielo
XFILLER_45_408 VPWR VGND sg13g2_decap_8
Xheichips25_template_22 VPWR VGND uio_oe[5] sg13g2_tiehi
XFILLER_39_994 VPWR VGND sg13g2_decap_8
XFILLER_26_655 VPWR VGND sg13g2_decap_8
XFILLER_13_316 VPWR VGND sg13g2_decap_8
XFILLER_15_11 VPWR VGND sg13g2_decap_4
XFILLER_41_603 VPWR VGND sg13g2_decap_8
XFILLER_13_327 VPWR VGND sg13g2_decap_8
XFILLER_25_198 VPWR VGND sg13g2_decap_8
XFILLER_40_124 VPWR VGND sg13g2_decap_8
XFILLER_22_872 VPWR VGND sg13g2_decap_8
XFILLER_31_21 VPWR VGND sg13g2_decap_8
XFILLER_31_98 VPWR VGND sg13g2_decap_8
XFILLER_1_754 VPWR VGND sg13g2_decap_8
XFILLER_0_231 VPWR VGND sg13g2_decap_8
XFILLER_49_758 VPWR VGND sg13g2_decap_8
XFILLER_48_257 VPWR VGND sg13g2_fill_2
XFILLER_48_246 VPWR VGND sg13g2_decap_8
XFILLER_44_430 VPWR VGND sg13g2_decap_8
X_576_ net80 VGND VPWR _116_ DP_3.matrix\[45\] clknet_5_15__leaf_clk sg13g2_dfrbpq_1
XFILLER_45_975 VPWR VGND sg13g2_decap_8
XFILLER_17_677 VPWR VGND sg13g2_decap_8
XFILLER_16_176 VPWR VGND sg13g2_decap_8
XFILLER_13_872 VPWR VGND sg13g2_decap_8
XFILLER_31_168 VPWR VGND sg13g2_decap_8
XFILLER_32_669 VPWR VGND sg13g2_decap_8
XFILLER_9_843 VPWR VGND sg13g2_decap_8
XFILLER_40_680 VPWR VGND sg13g2_decap_8
XFILLER_36_975 VPWR VGND sg13g2_decap_8
XFILLER_23_625 VPWR VGND sg13g2_decap_8
XFILLER_11_809 VPWR VGND sg13g2_decap_8
XFILLER_2_518 VPWR VGND sg13g2_fill_1
XFILLER_19_909 VPWR VGND sg13g2_decap_8
XFILLER_46_739 VPWR VGND sg13g2_decap_8
XFILLER_45_227 VPWR VGND sg13g2_decap_8
XFILLER_45_205 VPWR VGND sg13g2_fill_2
Xclkbuf_5_23__f_clk clknet_4_11_0_clk clknet_5_23__leaf_clk VPWR VGND sg13g2_buf_8
XFILLER_26_32 VPWR VGND sg13g2_decap_8
XFILLER_27_953 VPWR VGND sg13g2_decap_8
XFILLER_39_791 VPWR VGND sg13g2_decap_8
XFILLER_26_452 VPWR VGND sg13g2_decap_8
X_430_ net119 _124_ VPWR VGND sg13g2_buf_1
X_361_ _213_ net126 net40 VPWR VGND sg13g2_nand2_1
XFILLER_13_102 VPWR VGND sg13g2_decap_8
XFILLER_41_433 VPWR VGND sg13g2_decap_4
XFILLER_42_967 VPWR VGND sg13g2_decap_8
XFILLER_14_658 VPWR VGND sg13g2_decap_8
X_292_ net161 mac1.sum_lvl1_ff\[24\] _012_ VPWR VGND sg13g2_xor2_1
XFILLER_13_168 VPWR VGND sg13g2_decap_8
XFILLER_6_802 VPWR VGND sg13g2_decap_8
XFILLER_10_886 VPWR VGND sg13g2_decap_8
XFILLER_6_879 VPWR VGND sg13g2_decap_8
XFILLER_5_345 VPWR VGND sg13g2_decap_8
XFILLER_3_25 VPWR VGND sg13g2_decap_8
XFILLER_1_551 VPWR VGND sg13g2_decap_8
XFILLER_49_555 VPWR VGND sg13g2_decap_8
XFILLER_36_216 VPWR VGND sg13g2_decap_8
XFILLER_18_942 VPWR VGND sg13g2_decap_8
XFILLER_45_772 VPWR VGND sg13g2_decap_8
XFILLER_17_441 VPWR VGND sg13g2_decap_8
XFILLER_33_923 VPWR VGND sg13g2_decap_8
X_559_ net83 VGND VPWR _099_ DP_2.matrix\[46\] clknet_5_29__leaf_clk sg13g2_dfrbpq_1
XFILLER_32_466 VPWR VGND sg13g2_decap_8
XFILLER_34_1000 VPWR VGND sg13g2_decap_8
XFILLER_9_640 VPWR VGND sg13g2_decap_8
XFILLER_28_728 VPWR VGND sg13g2_decap_8
XFILLER_36_772 VPWR VGND sg13g2_decap_8
XFILLER_24_923 VPWR VGND sg13g2_decap_8
XFILLER_11_606 VPWR VGND sg13g2_decap_8
XFILLER_23_455 VPWR VGND sg13g2_decap_8
XFILLER_10_138 VPWR VGND sg13g2_decap_8
XFILLER_6_109 VPWR VGND sg13g2_decap_8
Xhold150 _001_ VPWR VGND net200 sg13g2_dlygate4sd3_1
XFILLER_19_706 VPWR VGND sg13g2_decap_8
XFILLER_18_216 VPWR VGND sg13g2_fill_1
XFILLER_46_536 VPWR VGND sg13g2_decap_8
XFILLER_2_1020 VPWR VGND sg13g2_decap_8
XFILLER_37_64 VPWR VGND sg13g2_decap_8
XFILLER_27_750 VPWR VGND sg13g2_decap_8
XFILLER_26_271 VPWR VGND sg13g2_fill_2
XFILLER_26_282 VPWR VGND sg13g2_decap_8
X_413_ net88 _107_ VPWR VGND sg13g2_buf_1
XFILLER_42_764 VPWR VGND sg13g2_decap_8
XFILLER_14_433 VPWR VGND sg13g2_decap_8
XFILLER_15_967 VPWR VGND sg13g2_decap_8
XFILLER_18_1028 VPWR VGND sg13g2_fill_1
XFILLER_41_230 VPWR VGND sg13g2_decap_8
XFILLER_30_948 VPWR VGND sg13g2_decap_8
X_344_ _201_ _200_ _045_ VPWR VGND sg13g2_xor2_1
X_275_ _005_ _162_ _163_ VPWR VGND sg13g2_xnor2_1
XFILLER_10_683 VPWR VGND sg13g2_decap_8
XFILLER_6_676 VPWR VGND sg13g2_decap_8
XFILLER_45_7 VPWR VGND sg13g2_decap_8
XFILLER_5_175 VPWR VGND sg13g2_decap_8
XFILLER_49_352 VPWR VGND sg13g2_decap_8
XFILLER_24_208 VPWR VGND sg13g2_decap_8
XFILLER_37_569 VPWR VGND sg13g2_decap_8
XFILLER_33_720 VPWR VGND sg13g2_decap_8
XFILLER_17_293 VPWR VGND sg13g2_decap_8
XFILLER_21_904 VPWR VGND sg13g2_decap_8
XFILLER_32_230 VPWR VGND sg13g2_fill_1
XFILLER_32_274 VPWR VGND sg13g2_decap_8
XFILLER_33_797 VPWR VGND sg13g2_decap_8
XFILLER_20_458 VPWR VGND sg13g2_decap_8
XFILLER_0_819 VPWR VGND sg13g2_decap_8
XFILLER_28_525 VPWR VGND sg13g2_decap_8
XFILLER_43_517 VPWR VGND sg13g2_decap_8
XFILLER_24_720 VPWR VGND sg13g2_decap_8
XFILLER_24_797 VPWR VGND sg13g2_decap_8
XFILLER_23_296 VPWR VGND sg13g2_decap_8
XFILLER_7_429 VPWR VGND sg13g2_decap_8
XFILLER_2_112 VPWR VGND sg13g2_fill_2
XFILLER_3_657 VPWR VGND sg13g2_decap_8
XFILLER_2_123 VPWR VGND sg13g2_decap_8
XFILLER_2_167 VPWR VGND sg13g2_decap_8
XFILLER_24_1021 VPWR VGND sg13g2_decap_8
XFILLER_47_812 VPWR VGND sg13g2_decap_8
XFILLER_48_63 VPWR VGND sg13g2_decap_8
XFILLER_47_889 VPWR VGND sg13g2_decap_8
XFILLER_46_366 VPWR VGND sg13g2_decap_8
XFILLER_34_517 VPWR VGND sg13g2_decap_8
XFILLER_14_230 VPWR VGND sg13g2_decap_8
XFILLER_15_764 VPWR VGND sg13g2_decap_8
XFILLER_42_561 VPWR VGND sg13g2_decap_8
X_327_ _191_ net141 net51 VPWR VGND sg13g2_nand2_1
XFILLER_30_745 VPWR VGND sg13g2_decap_8
XFILLER_11_970 VPWR VGND sg13g2_decap_8
XFILLER_31_1014 VPWR VGND sg13g2_decap_8
X_258_ _152_ mac1.total_sum\[0\] mac2.total_sum\[0\] VPWR VGND sg13g2_nand2_1
XFILLER_7_974 VPWR VGND sg13g2_decap_8
XFILLER_6_462 VPWR VGND sg13g2_fill_2
XFILLER_9_1004 VPWR VGND sg13g2_decap_8
XFILLER_38_845 VPWR VGND sg13g2_decap_8
XFILLER_25_506 VPWR VGND sg13g2_fill_1
XFILLER_37_355 VPWR VGND sg13g2_decap_8
XFILLER_21_701 VPWR VGND sg13g2_decap_8
XFILLER_20_200 VPWR VGND sg13g2_decap_8
XFILLER_33_594 VPWR VGND sg13g2_decap_8
XFILLER_21_778 VPWR VGND sg13g2_decap_8
XFILLER_20_277 VPWR VGND sg13g2_decap_8
XFILLER_0_616 VPWR VGND sg13g2_decap_8
XFILLER_18_11 VPWR VGND sg13g2_decap_8
XFILLER_29_834 VPWR VGND sg13g2_decap_8
XFILLER_44_815 VPWR VGND sg13g2_decap_8
XFILLER_16_506 VPWR VGND sg13g2_fill_1
XFILLER_28_355 VPWR VGND sg13g2_decap_8
XFILLER_43_358 VPWR VGND sg13g2_decap_8
XFILLER_34_21 VPWR VGND sg13g2_decap_8
XFILLER_15_1009 VPWR VGND sg13g2_decap_8
XFILLER_24_594 VPWR VGND sg13g2_decap_8
XFILLER_8_727 VPWR VGND sg13g2_decap_8
XFILLER_11_244 VPWR VGND sg13g2_decap_8
XFILLER_12_767 VPWR VGND sg13g2_decap_8
XFILLER_7_237 VPWR VGND sg13g2_decap_8
XFILLER_4_955 VPWR VGND sg13g2_decap_8
XFILLER_3_443 VPWR VGND sg13g2_decap_8
XFILLER_3_487 VPWR VGND sg13g2_fill_1
XFILLER_1_0 VPWR VGND sg13g2_decap_8
XFILLER_39_609 VPWR VGND sg13g2_decap_8
XFILLER_38_108 VPWR VGND sg13g2_fill_1
XFILLER_47_686 VPWR VGND sg13g2_decap_8
XFILLER_19_399 VPWR VGND sg13g2_decap_8
XFILLER_35_837 VPWR VGND sg13g2_decap_8
XFILLER_34_358 VPWR VGND sg13g2_decap_8
XFILLER_43_881 VPWR VGND sg13g2_decap_8
XFILLER_15_550 VPWR VGND sg13g2_decap_8
XFILLER_30_542 VPWR VGND sg13g2_decap_8
XFILLER_7_771 VPWR VGND sg13g2_decap_8
XFILLER_34_0 VPWR VGND sg13g2_decap_8
Xclkbuf_5_4__f_clk clknet_4_2_0_clk clknet_5_4__leaf_clk VPWR VGND sg13g2_buf_8
XFILLER_38_642 VPWR VGND sg13g2_decap_8
XFILLER_26_837 VPWR VGND sg13g2_decap_8
XFILLER_37_163 VPWR VGND sg13g2_decap_8
XFILLER_25_358 VPWR VGND sg13g2_decap_8
XFILLER_34_881 VPWR VGND sg13g2_decap_8
XFILLER_33_380 VPWR VGND sg13g2_decap_8
XFILLER_21_542 VPWR VGND sg13g2_decap_8
XFILLER_20_67 VPWR VGND sg13g2_decap_8
XFILLER_0_413 VPWR VGND sg13g2_decap_8
XFILLER_1_936 VPWR VGND sg13g2_decap_8
Xhold32 DP_3.matrix\[19\] VPWR VGND net56 sg13g2_dlygate4sd3_1
Xhold21 DP_4.matrix\[19\] VPWR VGND net45 sg13g2_dlygate4sd3_1
Xhold10 mac2.sum_lvl2_ff\[9\] VPWR VGND net34 sg13g2_dlygate4sd3_1
Xhold65 mac2.sum_lvl3_ff\[0\] VPWR VGND net115 sg13g2_dlygate4sd3_1
XFILLER_21_1002 VPWR VGND sg13g2_decap_8
Xhold43 mac1.products_ff\[0\] VPWR VGND net93 sg13g2_dlygate4sd3_1
XFILLER_29_631 VPWR VGND sg13g2_decap_8
Xhold54 _026_ VPWR VGND net104 sg13g2_dlygate4sd3_1
Xhold98 DP_3.matrix\[18\] VPWR VGND net148 sg13g2_dlygate4sd3_1
Xhold76 DP_1.matrix\[63\] VPWR VGND net126 sg13g2_dlygate4sd3_1
Xhold87 _032_ VPWR VGND net137 sg13g2_dlygate4sd3_1
XFILLER_44_612 VPWR VGND sg13g2_decap_8
X_592_ net71 VGND VPWR _132_ DP_4.matrix\[36\] clknet_5_14__leaf_clk sg13g2_dfrbpq_1
XFILLER_45_53 VPWR VGND sg13g2_fill_2
XFILLER_45_42 VPWR VGND sg13g2_decap_8
XFILLER_17_859 VPWR VGND sg13g2_decap_8
XFILLER_45_97 VPWR VGND sg13g2_decap_8
XFILLER_44_689 VPWR VGND sg13g2_decap_8
XFILLER_16_369 VPWR VGND sg13g2_decap_8
XFILLER_40_862 VPWR VGND sg13g2_decap_8
XFILLER_8_524 VPWR VGND sg13g2_decap_8
XFILLER_6_25 VPWR VGND sg13g2_decap_8
XFILLER_4_752 VPWR VGND sg13g2_decap_8
XFILLER_39_406 VPWR VGND sg13g2_decap_8
XFILLER_0_980 VPWR VGND sg13g2_decap_8
XFILLER_48_951 VPWR VGND sg13g2_decap_8
XFILLER_19_130 VPWR VGND sg13g2_decap_8
XFILLER_47_483 VPWR VGND sg13g2_decap_8
XFILLER_35_634 VPWR VGND sg13g2_decap_8
XFILLER_23_807 VPWR VGND sg13g2_decap_8
XFILLER_22_339 VPWR VGND sg13g2_decap_8
XFILLER_30_372 VPWR VGND sg13g2_decap_4
XFILLER_31_895 VPWR VGND sg13g2_decap_8
Xheichips25_template_12 VPWR VGND uio_out[7] sg13g2_tielo
Xheichips25_template_23 VPWR VGND uio_oe[6] sg13g2_tiehi
XFILLER_39_973 VPWR VGND sg13g2_decap_8
XFILLER_25_111 VPWR VGND sg13g2_decap_8
XFILLER_26_634 VPWR VGND sg13g2_decap_8
XFILLER_25_177 VPWR VGND sg13g2_decap_8
XFILLER_22_851 VPWR VGND sg13g2_decap_8
XFILLER_41_659 VPWR VGND sg13g2_decap_8
Xclkbuf_4_10_0_clk clknet_0_clk clknet_4_10_0_clk VPWR VGND sg13g2_buf_8
XFILLER_5_527 VPWR VGND sg13g2_decap_8
XFILLER_31_77 VPWR VGND sg13g2_decap_8
XFILLER_0_210 VPWR VGND sg13g2_decap_8
XFILLER_1_733 VPWR VGND sg13g2_decap_8
XFILLER_49_737 VPWR VGND sg13g2_decap_8
XFILLER_0_287 VPWR VGND sg13g2_decap_8
XFILLER_45_954 VPWR VGND sg13g2_decap_8
XFILLER_17_656 VPWR VGND sg13g2_decap_8
X_575_ net70 VGND VPWR _115_ DP_3.matrix\[37\] clknet_5_14__leaf_clk sg13g2_dfrbpq_1
XFILLER_16_155 VPWR VGND sg13g2_decap_8
XFILLER_44_486 VPWR VGND sg13g2_decap_8
XFILLER_32_648 VPWR VGND sg13g2_decap_8
XFILLER_13_851 VPWR VGND sg13g2_decap_8
XFILLER_31_147 VPWR VGND sg13g2_decap_8
XFILLER_9_822 VPWR VGND sg13g2_decap_8
XFILLER_12_372 VPWR VGND sg13g2_decap_8
XFILLER_8_332 VPWR VGND sg13g2_decap_8
XFILLER_8_387 VPWR VGND sg13g2_fill_2
XFILLER_8_376 VPWR VGND sg13g2_decap_8
XFILLER_9_899 VPWR VGND sg13g2_decap_8
XFILLER_8_398 VPWR VGND sg13g2_decap_8
XFILLER_4_560 VPWR VGND sg13g2_decap_8
XFILLER_28_1008 VPWR VGND sg13g2_decap_8
XFILLER_39_203 VPWR VGND sg13g2_decap_8
XFILLER_35_431 VPWR VGND sg13g2_decap_4
XFILLER_36_954 VPWR VGND sg13g2_decap_8
XFILLER_23_604 VPWR VGND sg13g2_decap_8
XFILLER_22_103 VPWR VGND sg13g2_decap_4
XFILLER_22_169 VPWR VGND sg13g2_decap_8
XFILLER_31_692 VPWR VGND sg13g2_decap_8
XFILLER_11_1012 VPWR VGND sg13g2_decap_8
XFILLER_46_718 VPWR VGND sg13g2_decap_8
XFILLER_39_770 VPWR VGND sg13g2_decap_8
XFILLER_26_11 VPWR VGND sg13g2_decap_8