* NGSPICE file created from heichips25_template.ext - technology: ihp-sg13g2

* Black-box entry subcircuit for sg13g2_fill_2 abstract view
.subckt sg13g2_fill_2 VDD VSS
.ends

* Black-box entry subcircuit for sg13g2_decap_8 abstract view
.subckt sg13g2_decap_8 VDD VSS
.ends

* Black-box entry subcircuit for sg13g2_dfrbpq_1 abstract view
.subckt sg13g2_dfrbpq_1 RESET_B VSS VDD D Q CLK
.ends

* Black-box entry subcircuit for sg13g2_buf_1 abstract view
.subckt sg13g2_buf_1 A X VDD VSS
.ends

* Black-box entry subcircuit for sg13g2_nand2_1 abstract view
.subckt sg13g2_nand2_1 Y A B VDD VSS
.ends

* Black-box entry subcircuit for sg13g2_xor2_1 abstract view
.subckt sg13g2_xor2_1 B A X VDD VSS
.ends

* Black-box entry subcircuit for sg13g2_decap_4 abstract view
.subckt sg13g2_decap_4 VDD VSS
.ends

* Black-box entry subcircuit for sg13g2_fill_1 abstract view
.subckt sg13g2_fill_1 VDD VSS
.ends

* Black-box entry subcircuit for sg13g2_xnor2_1 abstract view
.subckt sg13g2_xnor2_1 Y A B VDD VSS
.ends

* Black-box entry subcircuit for sg13g2_buf_8 abstract view
.subckt sg13g2_buf_8 A X VDD VSS
.ends

* Black-box entry subcircuit for sg13g2_dlygate4sd3_1 abstract view
.subckt sg13g2_dlygate4sd3_1 A VDD VSS X
.ends

* Black-box entry subcircuit for sg13g2_tielo abstract view
.subckt sg13g2_tielo VDD VSS L_LO
.ends

* Black-box entry subcircuit for sg13g2_tiehi abstract view
.subckt sg13g2_tiehi VDD VSS L_HI
.ends

* Black-box entry subcircuit for sg13g2_dfrbpq_2 abstract view
.subckt sg13g2_dfrbpq_2 RESET_B VSS VDD D Q CLK
.ends

* Black-box entry subcircuit for sg13g2_a21o_2 abstract view
.subckt sg13g2_a21o_2 A2 A1 B1 X VDD VSS
.ends

* Black-box entry subcircuit for sg13g2_inv_1 abstract view
.subckt sg13g2_inv_1 VDD Y A VSS
.ends

* Black-box entry subcircuit for sg13g2_and2_1 abstract view
.subckt sg13g2_and2_1 A B X VDD VSS
.ends

* Black-box entry subcircuit for sg13g2_o21ai_1 abstract view
.subckt sg13g2_o21ai_1 B1 VDD Y VSS A1 A2
.ends

* Black-box entry subcircuit for sg13g2_buf_2 abstract view
.subckt sg13g2_buf_2 A X VDD VSS
.ends

* Black-box entry subcircuit for sg13g2_nor2_1 abstract view
.subckt sg13g2_nor2_1 A B Y VDD VSS
.ends

* Black-box entry subcircuit for sg13g2_nand2b_1 abstract view
.subckt sg13g2_nand2b_1 Y B A_N VDD VSS
.ends

* Black-box entry subcircuit for sg13g2_or2_1 abstract view
.subckt sg13g2_or2_1 VSS VDD X B A
.ends

.subckt heichips25_template VGND VPWR clk ena rst_n ui_in[0] ui_in[1] ui_in[2] ui_in[3]
+ ui_in[4] ui_in[5] ui_in[6] ui_in[7] uio_in[0] uio_in[1] uio_in[2] uio_in[3] uio_in[4]
+ uio_in[5] uio_in[6] uio_in[7] uio_oe[0] uio_oe[1] uio_oe[2] uio_oe[3] uio_oe[4]
+ uio_oe[5] uio_oe[6] uio_oe[7] uio_out[0] uio_out[1] uio_out[2] uio_out[3] uio_out[4]
+ uio_out[5] uio_out[6] uio_out[7] uo_out[0] uo_out[1] uo_out[2] uo_out[3] uo_out[4]
+ uo_out[5] uo_out[6] uo_out[7]
XFILLER_39_244 VPWR VGND sg13g2_fill_2
XFILLER_28_918 VPWR VGND sg13g2_decap_8
XFILLER_39_288 VPWR VGND sg13g2_decap_8
XFILLER_36_995 VPWR VGND sg13g2_decap_8
XFILLER_23_656 VPWR VGND sg13g2_decap_8
XFILLER_35_1009 VPWR VGND sg13g2_decap_8
XFILLER_10_306 VPWR VGND sg13g2_decap_8
XFILLER_22_166 VPWR VGND sg13g2_fill_2
XFILLER_22_177 VPWR VGND sg13g2_decap_8
XFILLER_7_7 VPWR VGND sg13g2_decap_8
XFILLER_2_516 VPWR VGND sg13g2_decap_8
XFILLER_46_715 VPWR VGND sg13g2_decap_8
XFILLER_18_428 VPWR VGND sg13g2_decap_8
X_501_ net57 VGND VPWR _123_ DP_3.matrix\[129\] clknet_5_0__leaf_clk sg13g2_dfrbpq_1
XFILLER_27_973 VPWR VGND sg13g2_decap_8
X_432_ net133 _126_ VPWR VGND sg13g2_buf_1
XFILLER_14_612 VPWR VGND sg13g2_decap_8
XFILLER_26_63 VPWR VGND sg13g2_decap_8
XFILLER_26_483 VPWR VGND sg13g2_decap_8
XFILLER_42_976 VPWR VGND sg13g2_decap_8
XFILLER_13_144 VPWR VGND sg13g2_decap_8
XFILLER_14_667 VPWR VGND sg13g2_decap_8
X_363_ _214_ net47 net120 VPWR VGND sg13g2_nand2_1
X_294_ mac2.sum_lvl1_ff\[17\] mac2.sum_lvl1_ff\[25\] _173_ VPWR VGND sg13g2_xor2_1
XFILLER_10_895 VPWR VGND sg13g2_decap_8
XFILLER_6_866 VPWR VGND sg13g2_decap_8
XFILLER_5_365 VPWR VGND sg13g2_fill_2
XFILLER_49_531 VPWR VGND sg13g2_decap_8
XFILLER_3_67 VPWR VGND sg13g2_decap_8
XFILLER_36_225 VPWR VGND sg13g2_decap_8
XFILLER_18_940 VPWR VGND sg13g2_decap_8
XFILLER_33_954 VPWR VGND sg13g2_decap_8
XFILLER_9_660 VPWR VGND sg13g2_decap_8
XFILLER_8_170 VPWR VGND sg13g2_decap_8
XFILLER_28_715 VPWR VGND sg13g2_decap_8
XFILLER_41_1024 VPWR VGND sg13g2_decap_4
XFILLER_27_214 VPWR VGND sg13g2_decap_8
XFILLER_43_707 VPWR VGND sg13g2_decap_8
XFILLER_24_943 VPWR VGND sg13g2_decap_8
XFILLER_36_792 VPWR VGND sg13g2_decap_8
XFILLER_10_114 VPWR VGND sg13g2_decap_8
XFILLER_11_648 VPWR VGND sg13g2_decap_8
XFILLER_23_486 VPWR VGND sg13g2_decap_8
XFILLER_3_803 VPWR VGND sg13g2_decap_8
XFILLER_12_87 VPWR VGND sg13g2_decap_8
XFILLER_5_4 VPWR VGND sg13g2_fill_2
XFILLER_2_335 VPWR VGND sg13g2_decap_8
XFILLER_46_512 VPWR VGND sg13g2_decap_8
XFILLER_46_589 VPWR VGND sg13g2_decap_8
XFILLER_27_770 VPWR VGND sg13g2_decap_8
XFILLER_33_217 VPWR VGND sg13g2_fill_1
XFILLER_34_729 VPWR VGND sg13g2_decap_8
XFILLER_26_291 VPWR VGND sg13g2_decap_8
X_415_ net82 _109_ VPWR VGND sg13g2_buf_1
XFILLER_42_773 VPWR VGND sg13g2_decap_8
XFILLER_15_965 VPWR VGND sg13g2_decap_8
XFILLER_14_475 VPWR VGND sg13g2_decap_4
X_346_ _203_ _202_ _051_ VPWR VGND sg13g2_xor2_1
XFILLER_41_272 VPWR VGND sg13g2_decap_8
XFILLER_30_968 VPWR VGND sg13g2_decap_8
X_277_ _003_ _162_ _163_ VPWR VGND sg13g2_xnor2_1
XFILLER_10_692 VPWR VGND sg13g2_decap_8
XFILLER_6_663 VPWR VGND sg13g2_decap_8
XFILLER_5_184 VPWR VGND sg13g2_decap_8
XFILLER_49_350 VPWR VGND sg13g2_decap_8
XFILLER_37_567 VPWR VGND sg13g2_decap_8
XFILLER_33_751 VPWR VGND sg13g2_decap_8
XFILLER_20_423 VPWR VGND sg13g2_fill_2
XFILLER_21_946 VPWR VGND sg13g2_decap_8
XFILLER_32_272 VPWR VGND sg13g2_decap_8
XFILLER_20_434 VPWR VGND sg13g2_decap_8
Xclkbuf_4_12_0_clk clknet_0_clk clknet_4_12_0_clk VPWR VGND sg13g2_buf_8
XFILLER_9_490 VPWR VGND sg13g2_decap_8
XFILLER_28_501 VPWR VGND sg13g2_decap_4
XFILLER_43_504 VPWR VGND sg13g2_decap_8
XFILLER_15_206 VPWR VGND sg13g2_decap_8
XFILLER_28_589 VPWR VGND sg13g2_decap_8
XFILLER_24_740 VPWR VGND sg13g2_decap_8
XFILLER_30_209 VPWR VGND sg13g2_fill_1
XFILLER_11_456 VPWR VGND sg13g2_decap_8
XFILLER_12_957 VPWR VGND sg13g2_decap_8
XFILLER_23_86 VPWR VGND sg13g2_decap_8
XFILLER_3_600 VPWR VGND sg13g2_decap_8
XFILLER_3_677 VPWR VGND sg13g2_decap_8
XFILLER_2_187 VPWR VGND sg13g2_fill_1
XFILLER_47_821 VPWR VGND sg13g2_decap_8
XFILLER_46_342 VPWR VGND sg13g2_decap_8
XFILLER_0_35 VPWR VGND sg13g2_decap_8
XFILLER_47_898 VPWR VGND sg13g2_decap_8
XFILLER_46_364 VPWR VGND sg13g2_decap_4
XFILLER_19_567 VPWR VGND sg13g2_decap_8
XFILLER_34_526 VPWR VGND sg13g2_decap_8
XFILLER_46_386 VPWR VGND sg13g2_decap_8
XFILLER_9_11 VPWR VGND sg13g2_decap_8
XFILLER_15_762 VPWR VGND sg13g2_decap_8
XFILLER_42_570 VPWR VGND sg13g2_decap_8
XFILLER_14_261 VPWR VGND sg13g2_decap_8
XFILLER_30_765 VPWR VGND sg13g2_decap_8
X_329_ _192_ net136 net85 VPWR VGND sg13g2_nand2_1
XFILLER_31_1023 VPWR VGND sg13g2_decap_4
XFILLER_7_961 VPWR VGND sg13g2_decap_8
XFILLER_6_460 VPWR VGND sg13g2_decap_8
XFILLER_9_1024 VPWR VGND sg13g2_decap_4
XFILLER_29_0 VPWR VGND sg13g2_decap_8
XFILLER_38_810 VPWR VGND sg13g2_decap_8
XFILLER_37_342 VPWR VGND sg13g2_decap_8
XFILLER_38_887 VPWR VGND sg13g2_decap_8
XFILLER_20_231 VPWR VGND sg13g2_decap_8
XFILLER_21_743 VPWR VGND sg13g2_decap_8
XFILLER_48_618 VPWR VGND sg13g2_decap_8
XFILLER_0_658 VPWR VGND sg13g2_decap_8
XFILLER_47_139 VPWR VGND sg13g2_decap_8
XFILLER_29_854 VPWR VGND sg13g2_decap_8
XFILLER_28_364 VPWR VGND sg13g2_decap_8
XFILLER_44_857 VPWR VGND sg13g2_decap_8
XFILLER_18_97 VPWR VGND sg13g2_decap_8
XFILLER_43_345 VPWR VGND sg13g2_decap_8
XFILLER_12_754 VPWR VGND sg13g2_decap_8
XFILLER_15_1007 VPWR VGND sg13g2_decap_8
XFILLER_8_747 VPWR VGND sg13g2_decap_8
XFILLER_7_202 VPWR VGND sg13g2_decap_8
XFILLER_11_286 VPWR VGND sg13g2_decap_8
XFILLER_7_279 VPWR VGND sg13g2_decap_8
XFILLER_4_986 VPWR VGND sg13g2_decap_8
XFILLER_38_139 VPWR VGND sg13g2_decap_4
XFILLER_35_813 VPWR VGND sg13g2_decap_8
XFILLER_47_695 VPWR VGND sg13g2_decap_8
XFILLER_46_183 VPWR VGND sg13g2_decap_8
XFILLER_34_389 VPWR VGND sg13g2_decap_8
XFILLER_30_562 VPWR VGND sg13g2_decap_8
XFILLER_26_824 VPWR VGND sg13g2_decap_8
XFILLER_38_684 VPWR VGND sg13g2_decap_8
XFILLER_25_378 VPWR VGND sg13g2_decap_8
XFILLER_34_890 VPWR VGND sg13g2_decap_8
XFILLER_40_304 VPWR VGND sg13g2_decap_8
XFILLER_41_849 VPWR VGND sg13g2_decap_8
XFILLER_20_32 VPWR VGND sg13g2_decap_8
XFILLER_1_934 VPWR VGND sg13g2_decap_8
XFILLER_49_916 VPWR VGND sg13g2_decap_8
XFILLER_0_455 VPWR VGND sg13g2_decap_8
XFILLER_48_415 VPWR VGND sg13g2_decap_8
Xhold30 DP_4.matrix\[33\] VPWR VGND net54 sg13g2_dlygate4sd3_1
Xhold41 DP_2.matrix\[65\] VPWR VGND net91 sg13g2_dlygate4sd3_1
Xhold74 DP_4.matrix\[128\] VPWR VGND net124 sg13g2_dlygate4sd3_1
Xhold52 mac1.sum_lvl1_ff\[16\] VPWR VGND net102 sg13g2_dlygate4sd3_1
Xhold63 mac2.products_ff\[112\] VPWR VGND net113 sg13g2_dlygate4sd3_1
Xhold96 DP_3.matrix\[0\] VPWR VGND net146 sg13g2_dlygate4sd3_1
Xhold85 DP_2.matrix\[16\] VPWR VGND net135 sg13g2_dlygate4sd3_1
XFILLER_29_651 VPWR VGND sg13g2_decap_8
XFILLER_16_323 VPWR VGND sg13g2_decap_8
XFILLER_17_824 VPWR VGND sg13g2_decap_8
XFILLER_28_183 VPWR VGND sg13g2_decap_8
XFILLER_45_73 VPWR VGND sg13g2_decap_8
XFILLER_44_654 VPWR VGND sg13g2_decap_8
XFILLER_43_142 VPWR VGND sg13g2_decap_8
X_594_ net63 VGND VPWR _041_ mac2.products_ff\[97\] clknet_5_3__leaf_clk sg13g2_dfrbpq_1
XFILLER_32_827 VPWR VGND sg13g2_decap_8
XFILLER_31_337 VPWR VGND sg13g2_decap_8
XFILLER_8_500 VPWR VGND sg13g2_fill_2
XFILLER_12_573 VPWR VGND sg13g2_fill_2
XFILLER_12_584 VPWR VGND sg13g2_decap_8
XFILLER_8_566 VPWR VGND sg13g2_decap_8
XFILLER_6_67 VPWR VGND sg13g2_decap_8
XFILLER_4_783 VPWR VGND sg13g2_decap_8
XFILLER_3_271 VPWR VGND sg13g2_decap_8
XFILLER_6_1027 VPWR VGND sg13g2_fill_2
XFILLER_20_4 VPWR VGND sg13g2_decap_8
XFILLER_39_459 VPWR VGND sg13g2_fill_2
XFILLER_48_982 VPWR VGND sg13g2_decap_8
XFILLER_47_492 VPWR VGND sg13g2_decap_8
XFILLER_35_610 VPWR VGND sg13g2_decap_8
XFILLER_23_838 VPWR VGND sg13g2_decap_8
XFILLER_34_175 VPWR VGND sg13g2_decap_8
XFILLER_35_687 VPWR VGND sg13g2_decap_8
XFILLER_22_337 VPWR VGND sg13g2_decap_8
XFILLER_44_1011 VPWR VGND sg13g2_decap_8
Xheichips25_template_10 VPWR VGND uio_out[5] sg13g2_tielo
Xheichips25_template_21 VPWR VGND uio_oe[4] sg13g2_tiehi
XFILLER_26_621 VPWR VGND sg13g2_decap_8
XFILLER_38_481 VPWR VGND sg13g2_fill_1
XFILLER_14_849 VPWR VGND sg13g2_decap_8
XFILLER_15_32 VPWR VGND sg13g2_decap_8
XFILLER_25_153 VPWR VGND sg13g2_decap_8
XFILLER_26_698 VPWR VGND sg13g2_decap_8
XFILLER_41_646 VPWR VGND sg13g2_decap_8
XFILLER_9_308 VPWR VGND sg13g2_decap_8
XFILLER_40_167 VPWR VGND sg13g2_decap_8
XFILLER_31_42 VPWR VGND sg13g2_decap_8
XFILLER_1_731 VPWR VGND sg13g2_decap_8
XFILLER_49_713 VPWR VGND sg13g2_decap_8
XFILLER_0_252 VPWR VGND sg13g2_decap_8
XFILLER_48_234 VPWR VGND sg13g2_decap_8
XFILLER_48_267 VPWR VGND sg13g2_decap_8
XFILLER_45_941 VPWR VGND sg13g2_decap_8
XFILLER_44_451 VPWR VGND sg13g2_decap_8
X_577_ net57 VGND VPWR net28 mac2.sum_lvl1_ff\[32\] clknet_5_1__leaf_clk sg13g2_dfrbpq_1
XFILLER_17_698 VPWR VGND sg13g2_decap_8
XFILLER_32_624 VPWR VGND sg13g2_decap_8
XFILLER_31_112 VPWR VGND sg13g2_decap_4
XFILLER_8_330 VPWR VGND sg13g2_decap_8
XFILLER_9_842 VPWR VGND sg13g2_decap_8
XFILLER_13_893 VPWR VGND sg13g2_decap_8
XFILLER_8_352 VPWR VGND sg13g2_decap_8
Xclkbuf_5_17__f_clk clknet_4_8_0_clk clknet_5_17__leaf_clk VPWR VGND sg13g2_buf_8
XFILLER_4_580 VPWR VGND sg13g2_decap_8
XFILLER_39_267 VPWR VGND sg13g2_decap_4
XFILLER_27_429 VPWR VGND sg13g2_decap_8
XFILLER_36_974 VPWR VGND sg13g2_decap_8
XFILLER_35_484 VPWR VGND sg13g2_decap_8
XFILLER_23_635 VPWR VGND sg13g2_decap_8
XFILLER_22_145 VPWR VGND sg13g2_decap_8
XFILLER_22_156 VPWR VGND sg13g2_fill_2
XFILLER_18_407 VPWR VGND sg13g2_decap_8
X_500_ net57 VGND VPWR _122_ DP_3.matrix\[128\] clknet_5_0__leaf_clk sg13g2_dfrbpq_1
XFILLER_45_248 VPWR VGND sg13g2_fill_2
XFILLER_26_440 VPWR VGND sg13g2_decap_8
XFILLER_27_952 VPWR VGND sg13g2_decap_8
X_431_ net51 _125_ VPWR VGND sg13g2_buf_1
XFILLER_42_955 VPWR VGND sg13g2_decap_8
XFILLER_14_646 VPWR VGND sg13g2_decap_8
X_362_ _213_ _212_ _061_ VPWR VGND sg13g2_xor2_1
XFILLER_9_138 VPWR VGND sg13g2_decap_8
X_293_ _172_ net186 net105 VPWR VGND sg13g2_nand2_1
XFILLER_42_74 VPWR VGND sg13g2_decap_8
XFILLER_6_845 VPWR VGND sg13g2_decap_8
XFILLER_10_874 VPWR VGND sg13g2_decap_8
XFILLER_5_344 VPWR VGND sg13g2_decap_8
XFILLER_3_46 VPWR VGND sg13g2_decap_8
XFILLER_49_510 VPWR VGND sg13g2_decap_8
XFILLER_49_587 VPWR VGND sg13g2_decap_8
XFILLER_37_749 VPWR VGND sg13g2_decap_8
XFILLER_18_996 VPWR VGND sg13g2_decap_8
XFILLER_33_933 VPWR VGND sg13g2_decap_8
XFILLER_20_649 VPWR VGND sg13g2_decap_8
XFILLER_32_498 VPWR VGND sg13g2_decap_8
XFILLER_13_690 VPWR VGND sg13g2_decap_8
XFILLER_41_1003 VPWR VGND sg13g2_decap_8
XFILLER_24_922 VPWR VGND sg13g2_decap_8
XFILLER_36_771 VPWR VGND sg13g2_decap_8
XFILLER_23_465 VPWR VGND sg13g2_decap_8
XFILLER_24_999 VPWR VGND sg13g2_decap_8
XFILLER_12_11 VPWR VGND sg13g2_decap_8
XFILLER_12_66 VPWR VGND sg13g2_decap_8
XFILLER_2_314 VPWR VGND sg13g2_decap_8
XFILLER_3_859 VPWR VGND sg13g2_decap_8
XFILLER_18_204 VPWR VGND sg13g2_decap_8
XFILLER_19_749 VPWR VGND sg13g2_decap_8
XFILLER_46_568 VPWR VGND sg13g2_decap_8
XFILLER_34_708 VPWR VGND sg13g2_decap_8
XFILLER_37_63 VPWR VGND sg13g2_decap_8
XFILLER_37_74 VPWR VGND sg13g2_fill_1
X_414_ net161 _108_ VPWR VGND sg13g2_buf_1
XFILLER_15_944 VPWR VGND sg13g2_decap_8
XFILLER_42_752 VPWR VGND sg13g2_decap_8
XFILLER_14_454 VPWR VGND sg13g2_decap_8
XFILLER_41_251 VPWR VGND sg13g2_decap_8
X_345_ _203_ net131 net91 VPWR VGND sg13g2_nand2_1
XFILLER_30_947 VPWR VGND sg13g2_decap_8
X_276_ mac1.products_ff\[49\] mac1.products_ff\[33\] _163_ VPWR VGND sg13g2_xor2_1
XFILLER_10_671 VPWR VGND sg13g2_decap_8
XFILLER_6_642 VPWR VGND sg13g2_decap_8
XFILLER_5_163 VPWR VGND sg13g2_decap_8
XFILLER_49_384 VPWR VGND sg13g2_decap_8
XFILLER_37_546 VPWR VGND sg13g2_decap_8
XFILLER_18_793 VPWR VGND sg13g2_decap_8
XFILLER_24_229 VPWR VGND sg13g2_decap_8
XFILLER_33_730 VPWR VGND sg13g2_decap_8
XFILLER_20_402 VPWR VGND sg13g2_decap_8
XFILLER_21_925 VPWR VGND sg13g2_decap_8
XFILLER_16_719 VPWR VGND sg13g2_decap_8
XFILLER_28_568 VPWR VGND sg13g2_decap_8
XFILLER_15_229 VPWR VGND sg13g2_fill_1
XFILLER_12_936 VPWR VGND sg13g2_decap_8
XFILLER_24_796 VPWR VGND sg13g2_decap_8
XFILLER_8_929 VPWR VGND sg13g2_decap_8
XFILLER_11_435 VPWR VGND sg13g2_decap_8
XFILLER_23_65 VPWR VGND sg13g2_decap_8
XFILLER_3_656 VPWR VGND sg13g2_decap_8
XFILLER_24_1020 VPWR VGND sg13g2_decap_8
XFILLER_47_800 VPWR VGND sg13g2_decap_8
XFILLER_48_84 VPWR VGND sg13g2_decap_4
XFILLER_0_14 VPWR VGND sg13g2_decap_8
XFILLER_19_546 VPWR VGND sg13g2_decap_8
XFILLER_47_877 VPWR VGND sg13g2_decap_8
XFILLER_34_505 VPWR VGND sg13g2_decap_8
XFILLER_15_741 VPWR VGND sg13g2_decap_8
XFILLER_30_744 VPWR VGND sg13g2_decap_8
X_328_ _191_ _190_ _039_ VPWR VGND sg13g2_xor2_1
XFILLER_9_89 VPWR VGND sg13g2_decap_8
XFILLER_31_1002 VPWR VGND sg13g2_decap_8
XFILLER_7_940 VPWR VGND sg13g2_decap_8
XFILLER_11_991 VPWR VGND sg13g2_decap_8
X_259_ _154_ net173 net102 VPWR VGND sg13g2_nand2_1
XFILLER_9_1003 VPWR VGND sg13g2_decap_8
XFILLER_37_321 VPWR VGND sg13g2_decap_8
XFILLER_38_866 VPWR VGND sg13g2_decap_8
XFILLER_37_398 VPWR VGND sg13g2_decap_8
XFILLER_21_722 VPWR VGND sg13g2_decap_8
XFILLER_21_799 VPWR VGND sg13g2_decap_8
XFILLER_20_287 VPWR VGND sg13g2_decap_8
XFILLER_4_409 VPWR VGND sg13g2_decap_8
XFILLER_0_637 VPWR VGND sg13g2_decap_8
XFILLER_47_118 VPWR VGND sg13g2_decap_8
XFILLER_18_32 VPWR VGND sg13g2_fill_1
XFILLER_29_833 VPWR VGND sg13g2_decap_8
XFILLER_18_76 VPWR VGND sg13g2_fill_1
XFILLER_44_836 VPWR VGND sg13g2_decap_8
XFILLER_43_324 VPWR VGND sg13g2_decap_8
XFILLER_16_538 VPWR VGND sg13g2_decap_8
XFILLER_24_560 VPWR VGND sg13g2_decap_8
XFILLER_31_519 VPWR VGND sg13g2_decap_8
XFILLER_12_733 VPWR VGND sg13g2_decap_8
XFILLER_34_97 VPWR VGND sg13g2_fill_2
XFILLER_8_726 VPWR VGND sg13g2_decap_8
XFILLER_11_265 VPWR VGND sg13g2_decap_8
XFILLER_7_258 VPWR VGND sg13g2_decap_8
XFILLER_4_965 VPWR VGND sg13g2_decap_8
XFILLER_3_497 VPWR VGND sg13g2_fill_2
XFILLER_38_118 VPWR VGND sg13g2_decap_8
XFILLER_47_674 VPWR VGND sg13g2_decap_8
Xclkbuf_4_11_0_clk clknet_0_clk clknet_4_11_0_clk VPWR VGND sg13g2_buf_8
XFILLER_46_162 VPWR VGND sg13g2_decap_8
XFILLER_19_376 VPWR VGND sg13g2_decap_8
XFILLER_34_324 VPWR VGND sg13g2_decap_8
XFILLER_35_869 VPWR VGND sg13g2_decap_8
XFILLER_30_541 VPWR VGND sg13g2_decap_8
XFILLER_41_0 VPWR VGND sg13g2_decap_8
XFILLER_29_129 VPWR VGND sg13g2_decap_8
XFILLER_26_803 VPWR VGND sg13g2_decap_8
XFILLER_37_140 VPWR VGND sg13g2_decap_8
XFILLER_38_663 VPWR VGND sg13g2_decap_8
XFILLER_25_313 VPWR VGND sg13g2_decap_4
XFILLER_25_357 VPWR VGND sg13g2_decap_8
XFILLER_37_195 VPWR VGND sg13g2_decap_8
XFILLER_41_828 VPWR VGND sg13g2_decap_8
XFILLER_40_327 VPWR VGND sg13g2_decap_8
XFILLER_5_729 VPWR VGND sg13g2_decap_8
XFILLER_20_11 VPWR VGND sg13g2_decap_8
XFILLER_1_913 VPWR VGND sg13g2_decap_8
XFILLER_20_88 VPWR VGND sg13g2_decap_8
XFILLER_0_434 VPWR VGND sg13g2_decap_8
Xhold31 DP_2.matrix\[1\] VPWR VGND net55 sg13g2_dlygate4sd3_1
XFILLER_29_42 VPWR VGND sg13g2_decap_8
Xhold20 DP_4.matrix\[65\] VPWR VGND net44 sg13g2_dlygate4sd3_1
Xhold42 DP_1.matrix\[33\] VPWR VGND net92 sg13g2_dlygate4sd3_1
Xhold53 _010_ VPWR VGND net103 sg13g2_dlygate4sd3_1
Xhold64 _023_ VPWR VGND net114 sg13g2_dlygate4sd3_1
XFILLER_29_630 VPWR VGND sg13g2_decap_8
XFILLER_17_803 VPWR VGND sg13g2_decap_8
Xhold75 DP_3.matrix\[112\] VPWR VGND net125 sg13g2_dlygate4sd3_1
XFILLER_21_1023 VPWR VGND sg13g2_decap_4
Xhold86 DP_4.matrix\[96\] VPWR VGND net136 sg13g2_dlygate4sd3_1
Xhold97 mac2.products_ff\[0\] VPWR VGND net147 sg13g2_dlygate4sd3_1
XFILLER_44_633 VPWR VGND sg13g2_decap_8
XFILLER_16_302 VPWR VGND sg13g2_decap_8
XFILLER_28_162 VPWR VGND sg13g2_decap_8
XFILLER_45_63 VPWR VGND sg13g2_decap_4
XFILLER_45_52 VPWR VGND sg13g2_fill_2
XFILLER_43_121 VPWR VGND sg13g2_decap_8
X_593_ net64 VGND VPWR _040_ mac2.products_ff\[96\] clknet_5_9__leaf_clk sg13g2_dfrbpq_1
XFILLER_32_806 VPWR VGND sg13g2_decap_8
XFILLER_16_379 VPWR VGND sg13g2_decap_8
XFILLER_24_390 VPWR VGND sg13g2_decap_8
XFILLER_8_545 VPWR VGND sg13g2_decap_8
XFILLER_40_894 VPWR VGND sg13g2_decap_8
XFILLER_6_35 VPWR VGND sg13g2_decap_4
XFILLER_4_762 VPWR VGND sg13g2_decap_8
XFILLER_3_250 VPWR VGND sg13g2_decap_8
XFILLER_6_1006 VPWR VGND sg13g2_decap_8
XFILLER_13_4 VPWR VGND sg13g2_decap_8
XFILLER_39_438 VPWR VGND sg13g2_decap_8
XFILLER_48_961 VPWR VGND sg13g2_decap_8
XFILLER_47_471 VPWR VGND sg13g2_decap_8
XFILLER_19_151 VPWR VGND sg13g2_decap_4
XFILLER_19_173 VPWR VGND sg13g2_fill_2
XFILLER_35_666 VPWR VGND sg13g2_decap_8
XFILLER_16_880 VPWR VGND sg13g2_decap_8
XFILLER_22_316 VPWR VGND sg13g2_decap_8
XFILLER_23_817 VPWR VGND sg13g2_decap_8
XFILLER_34_154 VPWR VGND sg13g2_decap_8
XFILLER_30_382 VPWR VGND sg13g2_decap_8
XFILLER_31_883 VPWR VGND sg13g2_decap_8
Xheichips25_template_11 VPWR VGND uio_out[6] sg13g2_tielo
Xheichips25_template_22 VPWR VGND uio_oe[5] sg13g2_tiehi
XFILLER_26_600 VPWR VGND sg13g2_decap_8
XFILLER_25_132 VPWR VGND sg13g2_decap_8
XFILLER_14_828 VPWR VGND sg13g2_decap_8
XFILLER_15_11 VPWR VGND sg13g2_decap_8
XFILLER_26_677 VPWR VGND sg13g2_decap_8
XFILLER_41_625 VPWR VGND sg13g2_decap_8
XFILLER_40_102 VPWR VGND sg13g2_decap_8
XFILLER_40_146 VPWR VGND sg13g2_decap_8
XFILLER_31_21 VPWR VGND sg13g2_decap_8
XFILLER_31_98 VPWR VGND sg13g2_decap_8
XFILLER_1_710 VPWR VGND sg13g2_decap_8
XFILLER_0_231 VPWR VGND sg13g2_decap_8
XFILLER_1_787 VPWR VGND sg13g2_decap_8
XFILLER_49_769 VPWR VGND sg13g2_decap_8
XFILLER_36_408 VPWR VGND sg13g2_fill_2
XFILLER_45_920 VPWR VGND sg13g2_decap_8
XFILLER_44_430 VPWR VGND sg13g2_decap_8
XFILLER_45_997 VPWR VGND sg13g2_decap_8
XFILLER_16_165 VPWR VGND sg13g2_decap_4
XFILLER_17_677 VPWR VGND sg13g2_decap_8
X_576_ net67 VGND VPWR net181 mac2.sum_lvl1_ff\[25\] clknet_5_6__leaf_clk sg13g2_dfrbpq_1
XFILLER_32_603 VPWR VGND sg13g2_decap_8
XFILLER_13_872 VPWR VGND sg13g2_decap_8
XFILLER_9_821 VPWR VGND sg13g2_decap_8
XFILLER_40_691 VPWR VGND sg13g2_decap_8
XFILLER_9_898 VPWR VGND sg13g2_decap_8
XFILLER_39_202 VPWR VGND sg13g2_fill_1
XFILLER_27_408 VPWR VGND sg13g2_decap_8
XFILLER_47_290 VPWR VGND sg13g2_decap_8
XFILLER_36_953 VPWR VGND sg13g2_decap_8
XFILLER_23_614 VPWR VGND sg13g2_decap_8
XFILLER_35_463 VPWR VGND sg13g2_decap_8
XFILLER_22_124 VPWR VGND sg13g2_decap_8
XFILLER_11_809 VPWR VGND sg13g2_decap_8
XFILLER_31_680 VPWR VGND sg13g2_decap_8
XFILLER_45_227 VPWR VGND sg13g2_decap_8
Xclkbuf_5_23__f_clk clknet_4_11_0_clk clknet_5_23__leaf_clk VPWR VGND sg13g2_buf_8
XFILLER_26_32 VPWR VGND sg13g2_decap_8
XFILLER_27_931 VPWR VGND sg13g2_decap_8
X_430_ net143 _124_ VPWR VGND sg13g2_buf_1
XFILLER_41_400 VPWR VGND sg13g2_decap_8
XFILLER_42_934 VPWR VGND sg13g2_decap_8
XFILLER_13_124 VPWR VGND sg13g2_decap_4
XFILLER_26_98 VPWR VGND sg13g2_decap_8
X_361_ _213_ net141 net44 VPWR VGND sg13g2_nand2_1
XFILLER_42_42 VPWR VGND sg13g2_decap_8
XFILLER_9_117 VPWR VGND sg13g2_decap_8
X_292_ net152 mac2.sum_lvl2_ff\[4\] _029_ VPWR VGND sg13g2_xor2_1
XFILLER_41_499 VPWR VGND sg13g2_decap_8
XFILLER_10_853 VPWR VGND sg13g2_decap_8
XFILLER_6_824 VPWR VGND sg13g2_decap_8
XFILLER_5_323 VPWR VGND sg13g2_decap_8
XFILLER_5_367 VPWR VGND sg13g2_fill_1
XFILLER_3_25 VPWR VGND sg13g2_decap_8
XFILLER_1_584 VPWR VGND sg13g2_decap_8
XFILLER_49_566 VPWR VGND sg13g2_decap_8
XFILLER_37_728 VPWR VGND sg13g2_decap_8
XFILLER_18_975 VPWR VGND sg13g2_decap_8
XFILLER_33_912 VPWR VGND sg13g2_decap_8
XFILLER_45_794 VPWR VGND sg13g2_decap_8
XFILLER_17_485 VPWR VGND sg13g2_fill_1
X_559_ net61 VGND VPWR net31 mac1.sum_lvl3_ff\[2\] clknet_5_16__leaf_clk sg13g2_dfrbpq_1
XFILLER_32_444 VPWR VGND sg13g2_decap_8
XFILLER_33_989 VPWR VGND sg13g2_decap_8
XFILLER_20_628 VPWR VGND sg13g2_decap_8
XFILLER_12_190 VPWR VGND sg13g2_decap_8
XFILLER_9_695 VPWR VGND sg13g2_decap_8
XFILLER_5_890 VPWR VGND sg13g2_decap_8
XFILLER_27_249 VPWR VGND sg13g2_decap_8
XFILLER_42_219 VPWR VGND sg13g2_fill_1
XFILLER_24_901 VPWR VGND sg13g2_decap_8
XFILLER_36_750 VPWR VGND sg13g2_decap_8
XFILLER_23_444 VPWR VGND sg13g2_decap_8
XFILLER_24_978 VPWR VGND sg13g2_decap_8
XFILLER_10_149 VPWR VGND sg13g2_decap_8
XFILLER_12_34 VPWR VGND sg13g2_fill_2
XFILLER_12_45 VPWR VGND sg13g2_decap_8
XFILLER_3_838 VPWR VGND sg13g2_decap_8
XFILLER_5_6 VPWR VGND sg13g2_fill_1
Xhold150 _026_ VPWR VGND net200 sg13g2_dlygate4sd3_1
XFILLER_19_728 VPWR VGND sg13g2_decap_8
XFILLER_46_547 VPWR VGND sg13g2_decap_8
XFILLER_18_249 VPWR VGND sg13g2_decap_8
XFILLER_42_731 VPWR VGND sg13g2_decap_8
XFILLER_15_923 VPWR VGND sg13g2_decap_8
X_413_ net45 _107_ VPWR VGND sg13g2_buf_1
XFILLER_18_1017 VPWR VGND sg13g2_decap_8
XFILLER_18_1028 VPWR VGND sg13g2_fill_1
XFILLER_41_230 VPWR VGND sg13g2_decap_8
XFILLER_14_488 VPWR VGND sg13g2_decap_8
XFILLER_14_499 VPWR VGND sg13g2_fill_2
XFILLER_30_926 VPWR VGND sg13g2_decap_8
X_344_ _202_ net101 net157 VPWR VGND sg13g2_nand2_1
X_275_ _162_ net182 net109 VPWR VGND sg13g2_nand2_1
XFILLER_10_650 VPWR VGND sg13g2_decap_8
XFILLER_6_621 VPWR VGND sg13g2_decap_8
XFILLER_5_142 VPWR VGND sg13g2_decap_8
XFILLER_45_7 VPWR VGND sg13g2_decap_8
XFILLER_6_698 VPWR VGND sg13g2_decap_8
XFILLER_2_893 VPWR VGND sg13g2_decap_8
XFILLER_1_381 VPWR VGND sg13g2_decap_8
XFILLER_37_525 VPWR VGND sg13g2_decap_8
XFILLER_18_772 VPWR VGND sg13g2_decap_8
XFILLER_45_591 VPWR VGND sg13g2_decap_8
XFILLER_17_293 VPWR VGND sg13g2_decap_8
XFILLER_21_904 VPWR VGND sg13g2_decap_8
XFILLER_33_786 VPWR VGND sg13g2_decap_8
XFILLER_20_469 VPWR VGND sg13g2_fill_1
XFILLER_0_819 VPWR VGND sg13g2_decap_8
XFILLER_28_547 VPWR VGND sg13g2_decap_8
XFILLER_43_539 VPWR VGND sg13g2_decap_8
XFILLER_11_414 VPWR VGND sg13g2_decap_8
XFILLER_12_915 VPWR VGND sg13g2_decap_8
XFILLER_23_11 VPWR VGND sg13g2_decap_4
XFILLER_24_775 VPWR VGND sg13g2_decap_8
XFILLER_8_908 VPWR VGND sg13g2_decap_8
XFILLER_23_44 VPWR VGND sg13g2_decap_8
XFILLER_7_429 VPWR VGND sg13g2_decap_8
XFILLER_20_992 VPWR VGND sg13g2_decap_8
XFILLER_3_635 VPWR VGND sg13g2_decap_8
XFILLER_48_63 VPWR VGND sg13g2_decap_8
XFILLER_47_856 VPWR VGND sg13g2_decap_8
XFILLER_19_525 VPWR VGND sg13g2_decap_8
XFILLER_15_720 VPWR VGND sg13g2_decap_8
XFILLER_14_230 VPWR VGND sg13g2_decap_4
XFILLER_15_797 VPWR VGND sg13g2_decap_8
XFILLER_30_723 VPWR VGND sg13g2_decap_8
X_327_ _191_ net138 net50 VPWR VGND sg13g2_nand2_1
XFILLER_14_296 VPWR VGND sg13g2_decap_8
XFILLER_11_970 VPWR VGND sg13g2_decap_8
X_258_ net115 mac1.sum_lvl2_ff\[4\] _012_ VPWR VGND sg13g2_xor2_1
XFILLER_7_996 VPWR VGND sg13g2_decap_8
XFILLER_2_690 VPWR VGND sg13g2_decap_8
XFILLER_49_182 VPWR VGND sg13g2_decap_8
XFILLER_38_845 VPWR VGND sg13g2_decap_8
XFILLER_25_517 VPWR VGND sg13g2_decap_8
XFILLER_37_377 VPWR VGND sg13g2_decap_8
XFILLER_18_591 VPWR VGND sg13g2_decap_8
XFILLER_40_509 VPWR VGND sg13g2_decap_8
XFILLER_21_701 VPWR VGND sg13g2_decap_8
XFILLER_33_583 VPWR VGND sg13g2_decap_8
XFILLER_20_266 VPWR VGND sg13g2_decap_8
XFILLER_21_778 VPWR VGND sg13g2_decap_8
XFILLER_47_1010 VPWR VGND sg13g2_decap_8
XFILLER_0_616 VPWR VGND sg13g2_decap_8
XFILLER_29_812 VPWR VGND sg13g2_decap_8
XFILLER_18_11 VPWR VGND sg13g2_decap_8
XFILLER_44_815 VPWR VGND sg13g2_decap_8
XFILLER_28_344 VPWR VGND sg13g2_decap_4
XFILLER_29_889 VPWR VGND sg13g2_decap_8
XFILLER_43_303 VPWR VGND sg13g2_decap_8
XFILLER_16_517 VPWR VGND sg13g2_decap_8
XFILLER_28_399 VPWR VGND sg13g2_decap_8
XFILLER_34_21 VPWR VGND sg13g2_decap_4
XFILLER_12_712 VPWR VGND sg13g2_decap_8
XFILLER_34_76 VPWR VGND sg13g2_decap_8
XFILLER_8_705 VPWR VGND sg13g2_decap_8
XFILLER_11_244 VPWR VGND sg13g2_decap_8
XFILLER_12_789 VPWR VGND sg13g2_decap_8
XFILLER_7_237 VPWR VGND sg13g2_decap_8
XFILLER_4_944 VPWR VGND sg13g2_decap_8
XFILLER_3_410 VPWR VGND sg13g2_fill_1
XFILLER_3_454 VPWR VGND sg13g2_decap_8
XFILLER_1_0 VPWR VGND sg13g2_decap_8
XFILLER_47_653 VPWR VGND sg13g2_decap_8
XFILLER_46_141 VPWR VGND sg13g2_decap_8
XFILLER_19_333 VPWR VGND sg13g2_decap_8
XFILLER_19_355 VPWR VGND sg13g2_decap_8
XFILLER_34_303 VPWR VGND sg13g2_decap_8
XFILLER_35_848 VPWR VGND sg13g2_decap_8
XFILLER_15_594 VPWR VGND sg13g2_decap_8
XFILLER_30_520 VPWR VGND sg13g2_decap_8
XFILLER_30_597 VPWR VGND sg13g2_decap_8
XFILLER_7_793 VPWR VGND sg13g2_decap_8
XFILLER_6_281 VPWR VGND sg13g2_decap_8
XFILLER_34_0 VPWR VGND sg13g2_decap_8
XFILLER_29_108 VPWR VGND sg13g2_decap_8
Xclkbuf_5_4__f_clk clknet_4_2_0_clk clknet_5_4__leaf_clk VPWR VGND sg13g2_buf_8
XFILLER_38_642 VPWR VGND sg13g2_decap_8
XFILLER_1_91 VPWR VGND sg13g2_decap_8
XFILLER_26_859 VPWR VGND sg13g2_decap_8
XFILLER_41_807 VPWR VGND sg13g2_decap_8
XFILLER_33_391 VPWR VGND sg13g2_decap_8
XFILLER_5_708 VPWR VGND sg13g2_decap_8
XFILLER_4_218 VPWR VGND sg13g2_decap_8
XFILLER_20_67 VPWR VGND sg13g2_decap_8
XFILLER_0_413 VPWR VGND sg13g2_decap_8
XFILLER_1_969 VPWR VGND sg13g2_decap_8
Xhold32 DP_3.matrix\[17\] VPWR VGND net82 sg13g2_dlygate4sd3_1
Xhold10 mac1.sum_lvl1_ff\[32\] VPWR VGND net34 sg13g2_dlygate4sd3_1
Xhold21 DP_3.matrix\[1\] VPWR VGND net45 sg13g2_dlygate4sd3_1
Xhold54 DP_1.matrix\[129\] VPWR VGND net104 sg13g2_dlygate4sd3_1
Xhold65 mac1.sum_lvl2_ff\[0\] VPWR VGND net115 sg13g2_dlygate4sd3_1
XFILLER_21_1002 VPWR VGND sg13g2_decap_8
XFILLER_29_87 VPWR VGND sg13g2_decap_8
Xhold43 DP_3.matrix\[65\] VPWR VGND net93 sg13g2_dlygate4sd3_1
Xhold76 mac1.products_ff\[16\] VPWR VGND net126 sg13g2_dlygate4sd3_1
Xhold87 DP_3.matrix\[96\] VPWR VGND net137 sg13g2_dlygate4sd3_1
Xhold98 _017_ VPWR VGND net148 sg13g2_dlygate4sd3_1
XFILLER_44_612 VPWR VGND sg13g2_decap_8
XFILLER_29_686 VPWR VGND sg13g2_decap_8
X_592_ net80 VGND VPWR _045_ mac2.products_ff\[1\] clknet_5_30__leaf_clk sg13g2_dfrbpq_1
XFILLER_45_42 VPWR VGND sg13g2_fill_2
XFILLER_16_358 VPWR VGND sg13g2_decap_8
XFILLER_17_859 VPWR VGND sg13g2_decap_8
XFILLER_44_689 VPWR VGND sg13g2_decap_8
XFILLER_31_306 VPWR VGND sg13g2_decap_8
XFILLER_31_317 VPWR VGND sg13g2_fill_2
XFILLER_43_199 VPWR VGND sg13g2_decap_8
XFILLER_25_881 VPWR VGND sg13g2_decap_8
XFILLER_12_564 VPWR VGND sg13g2_decap_4
XFILLER_40_873 VPWR VGND sg13g2_decap_8
XFILLER_4_741 VPWR VGND sg13g2_decap_8
XFILLER_48_940 VPWR VGND sg13g2_decap_8
XFILLER_0_980 VPWR VGND sg13g2_decap_8
XFILLER_47_450 VPWR VGND sg13g2_decap_8
XFILLER_19_130 VPWR VGND sg13g2_decap_8
XFILLER_34_133 VPWR VGND sg13g2_decap_8
XFILLER_35_645 VPWR VGND sg13g2_decap_8
XFILLER_15_391 VPWR VGND sg13g2_decap_8
XFILLER_31_862 VPWR VGND sg13g2_decap_8
XFILLER_7_590 VPWR VGND sg13g2_decap_8
Xheichips25_template_12 VPWR VGND uio_out[7] sg13g2_tielo
XFILLER_45_409 VPWR VGND sg13g2_decap_8
Xheichips25_template_23 VPWR VGND uio_oe[6] sg13g2_tiehi
XFILLER_38_450 VPWR VGND sg13g2_decap_8
XFILLER_39_984 VPWR VGND sg13g2_decap_8
XFILLER_26_656 VPWR VGND sg13g2_decap_8
XFILLER_14_807 VPWR VGND sg13g2_decap_8
XFILLER_41_604 VPWR VGND sg13g2_decap_8
XFILLER_25_188 VPWR VGND sg13g2_decap_8
XFILLER_40_125 VPWR VGND sg13g2_decap_8
XFILLER_15_67 VPWR VGND sg13g2_decap_8
XFILLER_21_361 VPWR VGND sg13g2_fill_1
XFILLER_22_884 VPWR VGND sg13g2_decap_8
XFILLER_5_527 VPWR VGND sg13g2_decap_8
Xclkbuf_4_10_0_clk clknet_0_clk clknet_4_10_0_clk VPWR VGND sg13g2_buf_8
XFILLER_31_77 VPWR VGND sg13g2_decap_8
XFILLER_0_210 VPWR VGND sg13g2_decap_8
XFILLER_1_766 VPWR VGND sg13g2_decap_8
XFILLER_49_748 VPWR VGND sg13g2_decap_8
XFILLER_0_287 VPWR VGND sg13g2_decap_8
XFILLER_17_656 VPWR VGND sg13g2_decap_8
XFILLER_29_483 VPWR VGND sg13g2_decap_8
XFILLER_45_976 VPWR VGND sg13g2_decap_8
XFILLER_16_144 VPWR VGND sg13g2_decap_8
X_575_ net67 VGND VPWR net114 mac2.sum_lvl1_ff\[24\] clknet_5_9__leaf_clk sg13g2_dfrbpq_1
XFILLER_44_486 VPWR VGND sg13g2_decap_8
XFILLER_9_800 VPWR VGND sg13g2_decap_8
XFILLER_13_851 VPWR VGND sg13g2_decap_8
XFILLER_31_136 VPWR VGND sg13g2_decap_8
XFILLER_32_659 VPWR VGND sg13g2_decap_8
XFILLER_12_361 VPWR VGND sg13g2_decap_8
XFILLER_40_670 VPWR VGND sg13g2_decap_8
XFILLER_9_877 VPWR VGND sg13g2_decap_8
XFILLER_8_387 VPWR VGND sg13g2_decap_8
XFILLER_36_932 VPWR VGND sg13g2_decap_8
XFILLER_35_442 VPWR VGND sg13g2_decap_8
XFILLER_11_1012 VPWR VGND sg13g2_decap_8