* NGSPICE file created from heichips25_template.ext - technology: ihp-sg13g2

* Black-box entry subcircuit for sg13g2_nand2_1 abstract view
.subckt sg13g2_nand2_1 Y A B VDD VSS
.ends

* Black-box entry subcircuit for sg13g2_decap_8 abstract view
.subckt sg13g2_decap_8 VDD VSS
.ends

* Black-box entry subcircuit for sg13g2_fill_1 abstract view
.subckt sg13g2_fill_1 VDD VSS
.ends

* Black-box entry subcircuit for sg13g2_or2_1 abstract view
.subckt sg13g2_or2_1 VSS VDD X B A
.ends

* Black-box entry subcircuit for sg13g2_nor2b_1 abstract view
.subckt sg13g2_nor2b_1 A B_N Y VDD VSS
.ends

* Black-box entry subcircuit for sg13g2_dlygate4sd3_1 abstract view
.subckt sg13g2_dlygate4sd3_1 A VDD VSS X
.ends

* Black-box entry subcircuit for sg13g2_buf_8 abstract view
.subckt sg13g2_buf_8 A X VDD VSS
.ends

* Black-box entry subcircuit for sg13g2_buf_1 abstract view
.subckt sg13g2_buf_1 A X VDD VSS
.ends

* Black-box entry subcircuit for sg13g2_decap_4 abstract view
.subckt sg13g2_decap_4 VDD VSS
.ends

* Black-box entry subcircuit for sg13g2_fill_2 abstract view
.subckt sg13g2_fill_2 VDD VSS
.ends

* Black-box entry subcircuit for sg13g2_and4_1 abstract view
.subckt sg13g2_and4_1 A B C D X VDD VSS
.ends

* Black-box entry subcircuit for sg13g2_nand4_1 abstract view
.subckt sg13g2_nand4_1 B C A Y VDD VSS D
.ends

* Black-box entry subcircuit for sg13g2_a21oi_2 abstract view
.subckt sg13g2_a21oi_2 VSS VDD B1 Y A2 A1
.ends

* Black-box entry subcircuit for sg13g2_a21oi_1 abstract view
.subckt sg13g2_a21oi_1 VSS VDD A1 A2 Y B1
.ends

* Black-box entry subcircuit for sg13g2_inv_1 abstract view
.subckt sg13g2_inv_1 VDD Y A VSS
.ends

* Black-box entry subcircuit for sg13g2_dfrbpq_1 abstract view
.subckt sg13g2_dfrbpq_1 RESET_B VSS VDD D Q CLK
.ends

* Black-box entry subcircuit for sg13g2_a22oi_1 abstract view
.subckt sg13g2_a22oi_1 Y B1 B2 A2 A1 VDD VSS
.ends

* Black-box entry subcircuit for sg13g2_xor2_1 abstract view
.subckt sg13g2_xor2_1 B A X VDD VSS
.ends

* Black-box entry subcircuit for sg13g2_o21ai_1 abstract view
.subckt sg13g2_o21ai_1 B1 VDD Y VSS A1 A2
.ends

* Black-box entry subcircuit for sg13g2_xnor2_1 abstract view
.subckt sg13g2_xnor2_1 Y A B VDD VSS
.ends

* Black-box entry subcircuit for sg13g2_nor2_1 abstract view
.subckt sg13g2_nor2_1 A B Y VDD VSS
.ends

* Black-box entry subcircuit for sg13g2_and2_1 abstract view
.subckt sg13g2_and2_1 A B X VDD VSS
.ends

* Black-box entry subcircuit for sg13g2_nor3_1 abstract view
.subckt sg13g2_nor3_1 A B C Y VDD VSS
.ends

* Black-box entry subcircuit for sg13g2_nand3_1 abstract view
.subckt sg13g2_nand3_1 B C A Y VDD VSS
.ends

* Black-box entry subcircuit for sg13g2_a21o_1 abstract view
.subckt sg13g2_a21o_1 A2 A1 B1 X VDD VSS
.ends

* Black-box entry subcircuit for sg13g2_nand2b_1 abstract view
.subckt sg13g2_nand2b_1 Y B A_N VDD VSS
.ends

* Black-box entry subcircuit for sg13g2_and3_1 abstract view
.subckt sg13g2_and3_1 X A B C VDD VSS
.ends

* Black-box entry subcircuit for sg13g2_nand2_2 abstract view
.subckt sg13g2_nand2_2 Y A B VDD VSS
.ends

* Black-box entry subcircuit for sg13g2_buf_2 abstract view
.subckt sg13g2_buf_2 A X VDD VSS
.ends

* Black-box entry subcircuit for sg13g2_dfrbpq_2 abstract view
.subckt sg13g2_dfrbpq_2 RESET_B VSS VDD D Q CLK
.ends

* Black-box entry subcircuit for sg13g2_a21o_2 abstract view
.subckt sg13g2_a21o_2 A2 A1 B1 X VDD VSS
.ends

* Black-box entry subcircuit for sg13g2_or3_1 abstract view
.subckt sg13g2_or3_1 A B C X VDD VSS
.ends

* Black-box entry subcircuit for sg13g2_a221oi_1 abstract view
.subckt sg13g2_a221oi_1 VDD VSS B2 C1 B1 A1 Y A2
.ends

* Black-box entry subcircuit for sg13g2_tiehi abstract view
.subckt sg13g2_tiehi VDD VSS L_HI
.ends

* Black-box entry subcircuit for sg13g2_mux2_1 abstract view
.subckt sg13g2_mux2_1 A0 A1 S X VDD VSS
.ends

* Black-box entry subcircuit for sg13g2_nor2b_2 abstract view
.subckt sg13g2_nor2b_2 A B_N Y VDD VSS
.ends

* Black-box entry subcircuit for sg13g2_inv_4 abstract view
.subckt sg13g2_inv_4 A Y VDD VSS
.ends

* Black-box entry subcircuit for sg13g2_and3_2 abstract view
.subckt sg13g2_and3_2 X A B C VDD VSS
.ends

* Black-box entry subcircuit for sg13g2_inv_2 abstract view
.subckt sg13g2_inv_2 Y A VDD VSS
.ends

* Black-box entry subcircuit for sg13g2_or4_1 abstract view
.subckt sg13g2_or4_1 A B C D X VDD VSS
.ends

* Black-box entry subcircuit for sg13g2_nor4_1 abstract view
.subckt sg13g2_nor4_1 A B C D Y VDD VSS
.ends

* Black-box entry subcircuit for sg13g2_nand3b_1 abstract view
.subckt sg13g2_nand3b_1 B C Y VDD VSS A_N
.ends

.subckt heichips25_template VGND VPWR clk ena rst_n ui_in[0] ui_in[1] ui_in[2] ui_in[3]
+ ui_in[4] ui_in[5] ui_in[6] ui_in[7] uio_in[0] uio_in[1] uio_in[2] uio_in[3] uio_in[4]
+ uio_in[5] uio_in[6] uio_in[7] uio_oe[0] uio_oe[1] uio_oe[2] uio_oe[3] uio_oe[4]
+ uio_oe[5] uio_oe[6] uio_oe[7] uio_out[0] uio_out[1] uio_out[2] uio_out[3] uio_out[4]
+ uio_out[5] uio_out[6] uio_out[7] uo_out[0] uo_out[1] uo_out[2] uo_out[3] uo_out[4]
+ uo_out[5] uo_out[6] uo_out[7]
X_3155_ _2748_ _2746_ _2747_ VPWR VGND sg13g2_nand2_1
XFILLER_28_929 VPWR VGND sg13g2_decap_8
X_3086_ _2680_ net985 net907 VPWR VGND sg13g2_nand2_1
X_3988_ _0819_ net997 net927 VPWR VGND sg13g2_nand2_1
XFILLER_23_667 VPWR VGND sg13g2_fill_1
X_5727_ VGND VPWR _2423_ _2422_ _2420_ sg13g2_or2_1
X_5658_ _2361_ _2362_ net17 VPWR VGND sg13g2_nor2b_1
X_5589_ VGND VPWR _2309_ mac2.sum_lvl3_ff\[9\] mac2.sum_lvl3_ff\[29\] sg13g2_or2_1
X_4609_ _1412_ net900 net839 VPWR VGND sg13g2_nand2_1
Xhold340 mac1.sum_lvl2_ff\[2\] VPWR VGND net380 sg13g2_dlygate4sd3_1
Xhold351 _2164_ VPWR VGND net391 sg13g2_dlygate4sd3_1
Xhold362 _0080_ VPWR VGND net402 sg13g2_dlygate4sd3_1
Xhold373 DP_2.matrix\[74\] VPWR VGND net413 sg13g2_dlygate4sd3_1
Xhold395 _2139_ VPWR VGND net435 sg13g2_dlygate4sd3_1
Xhold384 _2304_ VPWR VGND net424 sg13g2_dlygate4sd3_1
Xfanout820 net496 net820 VPWR VGND sg13g2_buf_8
Xfanout831 net373 net831 VPWR VGND sg13g2_buf_8
Xfanout842 DP_4.matrix\[2\] net842 VPWR VGND sg13g2_buf_1
Xfanout853 DP_3.matrix\[79\] net853 VPWR VGND sg13g2_buf_1
Xfanout875 DP_3.matrix\[42\] net875 VPWR VGND sg13g2_buf_8
Xfanout864 net865 net864 VPWR VGND sg13g2_buf_1
Xfanout886 net323 net886 VPWR VGND sg13g2_buf_8
Xfanout897 net898 net897 VPWR VGND sg13g2_buf_8
XFILLER_42_954 VPWR VGND sg13g2_decap_8
XFILLER_1_582 VPWR VGND sg13g2_decap_4
XFILLER_49_564 VPWR VGND sg13g2_fill_2
XFILLER_37_726 VPWR VGND sg13g2_fill_1
XFILLER_36_236 VPWR VGND sg13g2_fill_2
X_4960_ net812 net809 net863 net861 _1749_ VPWR VGND sg13g2_and4_1
X_3911_ net937 net989 net941 _0744_ VPWR VGND net986 sg13g2_nand4_1
XFILLER_33_954 VPWR VGND sg13g2_decap_8
X_4891_ VGND VPWR _1686_ _1687_ _1685_ _1627_ sg13g2_a21oi_2
X_3842_ net939 net994 net941 _0677_ VPWR VGND net993 sg13g2_nand4_1
XFILLER_20_604 VPWR VGND sg13g2_fill_1
XFILLER_20_626 VPWR VGND sg13g2_decap_4
X_5512_ VGND VPWR _2244_ _2246_ _2249_ net491 sg13g2_a21oi_1
X_3773_ VPWR _0615_ _0614_ VGND sg13g2_inv_1
X_6492_ net1054 VGND VPWR _0033_ mac2.sum_lvl3_ff\[10\] clknet_leaf_19_clk sg13g2_dfrbpq_1
X_5443_ _2195_ net358 mac1.sum_lvl3_ff\[9\] VPWR VGND sg13g2_nand2_1
X_5374_ _2141_ mac1.sum_lvl2_ff\[29\] mac1.sum_lvl2_ff\[10\] VPWR VGND sg13g2_nand2_1
X_4325_ _1141_ net814 net884 net817 net883 VPWR VGND sg13g2_a22oi_1
X_4256_ _1073_ _1040_ _1074_ VPWR VGND sg13g2_xor2_1
X_3207_ _2781_ VPWR _2798_ VGND _2760_ _2782_ sg13g2_o21ai_1
X_4187_ net825 net882 net831 _1008_ VPWR VGND net880 sg13g2_nand4_1
X_3138_ _2726_ VPWR _2731_ VGND _2727_ _2729_ sg13g2_o21ai_1
X_3069_ _2659_ VPWR _2664_ VGND _2660_ _2662_ sg13g2_o21ai_1
XFILLER_24_954 VPWR VGND sg13g2_decap_8
XFILLER_12_76 VPWR VGND sg13g2_fill_2
Xhold170 mac1.products_ff\[0\] VPWR VGND net210 sg13g2_dlygate4sd3_1
Xhold181 mac1.products_ff\[75\] VPWR VGND net221 sg13g2_dlygate4sd3_1
Xhold192 mac2.products_ff\[143\] VPWR VGND net232 sg13g2_dlygate4sd3_1
XFILLER_33_217 VPWR VGND sg13g2_fill_1
XFILLER_14_431 VPWR VGND sg13g2_fill_1
XFILLER_15_976 VPWR VGND sg13g2_decap_8
XFILLER_30_946 VPWR VGND sg13g2_decap_8
X_4110_ _0937_ _0916_ _0938_ VPWR VGND sg13g2_nor2b_1
XFILLER_25_1019 VPWR VGND sg13g2_decap_8
X_5090_ _1874_ _1810_ _1875_ VPWR VGND sg13g2_xor2_1
X_4041_ _0866_ VPWR _0871_ VGND _0868_ _0869_ sg13g2_o21ai_1
X_5992_ net274 _0240_ VPWR VGND sg13g2_buf_1
X_4943_ _1736_ _1730_ _1735_ VPWR VGND sg13g2_xnor2_1
XFILLER_17_280 VPWR VGND sg13g2_fill_2
XFILLER_32_250 VPWR VGND sg13g2_fill_1
XFILLER_33_751 VPWR VGND sg13g2_fill_2
X_4874_ _1667_ _1669_ _1670_ VPWR VGND sg13g2_nor2_1
XFILLER_21_957 VPWR VGND sg13g2_decap_8
XFILLER_33_784 VPWR VGND sg13g2_fill_1
X_3825_ _0661_ _0658_ _0660_ VPWR VGND sg13g2_nand2_1
X_3756_ _0598_ _0597_ _0592_ _0596_ _0574_ VPWR VGND sg13g2_a22oi_1
Xclkbuf_4_12_0_clk clknet_0_clk clknet_4_12_0_clk VPWR VGND sg13g2_buf_8
X_6475_ net1121 VGND VPWR net216 mac2.sum_lvl2_ff\[28\] clknet_leaf_40_clk sg13g2_dfrbpq_1
X_5426_ net533 net501 _2181_ VPWR VGND sg13g2_and2_1
X_3687_ _0531_ _0528_ _0532_ VPWR VGND sg13g2_xor2_1
X_5357_ _2123_ net509 _2127_ _2128_ VPWR VGND sg13g2_nor3_1
X_5288_ _2067_ _2062_ _2065_ VPWR VGND sg13g2_xnor2_1
X_4308_ _1122_ _1123_ _1104_ _1125_ VPWR VGND sg13g2_nand3_1
X_4239_ _1056_ _1055_ _1038_ _1058_ VPWR VGND sg13g2_a21o_1
XFILLER_43_526 VPWR VGND sg13g2_fill_1
XFILLER_15_239 VPWR VGND sg13g2_fill_2
XFILLER_3_633 VPWR VGND sg13g2_fill_1
XFILLER_15_762 VPWR VGND sg13g2_fill_2
XFILLER_42_581 VPWR VGND sg13g2_decap_8
XFILLER_9_77 VPWR VGND sg13g2_fill_1
X_3610_ VGND VPWR _0457_ _0456_ _0407_ sg13g2_or2_1
X_4590_ _1394_ net899 net841 VPWR VGND sg13g2_nand2_1
X_3541_ _0389_ _0325_ _0390_ VPWR VGND sg13g2_xor2_1
XFILLER_7_983 VPWR VGND sg13g2_decap_8
X_3472_ _0322_ _0314_ _0316_ VPWR VGND sg13g2_nand2_1
X_6260_ net1061 VGND VPWR net132 mac2.sum_lvl2_ff\[45\] clknet_leaf_17_clk sg13g2_dfrbpq_1
X_6191_ net1072 VGND VPWR net202 mac1.sum_lvl1_ff\[38\] clknet_leaf_56_clk sg13g2_dfrbpq_1
X_5211_ _1991_ _1964_ _1993_ VPWR VGND sg13g2_xor2_1
X_5142_ _1915_ VPWR _1925_ VGND _1844_ _1916_ sg13g2_o21ai_1
XFILLER_29_309 VPWR VGND sg13g2_fill_1
XFILLER_38_821 VPWR VGND sg13g2_decap_8
X_5073_ _1858_ net853 net813 net855 net806 VPWR VGND sg13g2_a22oi_1
X_4024_ _0829_ VPWR _0854_ VGND _0827_ _0830_ sg13g2_o21ai_1
XFILLER_38_898 VPWR VGND sg13g2_decap_8
XFILLER_37_386 VPWR VGND sg13g2_fill_1
X_5975_ net279 _0215_ VPWR VGND sg13g2_buf_1
XFILLER_12_209 VPWR VGND sg13g2_fill_1
X_4926_ _1720_ _1719_ _1716_ VPWR VGND sg13g2_nand2b_1
X_4857_ VPWR _1654_ _1653_ VGND sg13g2_inv_1
X_3808_ _0645_ _0644_ _0632_ VPWR VGND sg13g2_nand2b_1
X_4788_ _1587_ _1556_ _1585_ VPWR VGND sg13g2_xnor2_1
X_3739_ _0582_ _0577_ _0580_ VPWR VGND sg13g2_xnor2_1
X_6458_ net1103 VGND VPWR net45 mac2.sum_lvl2_ff\[8\] clknet_leaf_42_clk sg13g2_dfrbpq_1
X_5409_ _0023_ _2165_ _2168_ VPWR VGND sg13g2_xnor2_1
X_6389_ net1119 VGND VPWR _0136_ mac2.products_ff\[76\] clknet_leaf_40_clk sg13g2_dfrbpq_1
XFILLER_0_625 VPWR VGND sg13g2_fill_1
XFILLER_47_117 VPWR VGND sg13g2_decap_8
XFILLER_29_876 VPWR VGND sg13g2_decap_8
XFILLER_31_529 VPWR VGND sg13g2_fill_1
XFILLER_15_1018 VPWR VGND sg13g2_decap_8
XFILLER_4_986 VPWR VGND sg13g2_decap_8
XFILLER_3_463 VPWR VGND sg13g2_fill_2
XFILLER_35_846 VPWR VGND sg13g2_decap_8
XFILLER_34_356 VPWR VGND sg13g2_fill_1
XFILLER_43_890 VPWR VGND sg13g2_decap_8
X_5760_ VGND VPWR _2455_ _2454_ _2452_ sg13g2_or2_1
X_5691_ _2386_ VPWR _2389_ VGND _2385_ _2387_ sg13g2_o21ai_1
X_4711_ net902 net900 net834 net832 _1511_ VPWR VGND sg13g2_and4_1
X_4642_ _1444_ net898 net840 VPWR VGND sg13g2_nand2_1
X_4573_ net847 net843 net899 net897 _1378_ VPWR VGND sg13g2_and4_1
X_3524_ _0373_ net1006 net962 net1007 net957 VPWR VGND sg13g2_a22oi_1
X_6312_ net1046 VGND VPWR net84 mac1.sum_lvl3_ff\[31\] clknet_leaf_5_clk sg13g2_dfrbpq_1
X_3455_ _0306_ net1009 net962 net1011 net958 VPWR VGND sg13g2_a22oi_1
X_6243_ net1066 VGND VPWR net203 mac1.sum_lvl2_ff\[44\] clknet_leaf_64_clk sg13g2_dfrbpq_1
X_3386_ _0099_ _2954_ _2970_ VPWR VGND sg13g2_xnor2_1
X_6174_ net1121 VGND VPWR _0253_ DP_4.matrix\[37\] clknet_4_14_0_clk sg13g2_dfrbpq_1
X_5125_ _1909_ _1890_ _1907_ _1908_ VPWR VGND sg13g2_and3_1
X_5056_ _1841_ net792 net868 net795 net866 VPWR VGND sg13g2_a22oi_1
X_4007_ _0838_ _0833_ _0837_ VPWR VGND sg13g2_nand2_1
XFILLER_26_857 VPWR VGND sg13g2_decap_8
XFILLER_41_816 VPWR VGND sg13g2_decap_8
X_5958_ net980 _0190_ VPWR VGND sg13g2_buf_1
XFILLER_13_518 VPWR VGND sg13g2_fill_1
X_4909_ _1702_ _1688_ _1704_ VPWR VGND sg13g2_xor2_1
X_5889_ _2460_ _2456_ _2569_ VPWR VGND sg13g2_xor2_1
XFILLER_0_411 VPWR VGND sg13g2_fill_1
XFILLER_1_945 VPWR VGND sg13g2_decap_8
Xhold30 mac1.products_ff\[11\] VPWR VGND net70 sg13g2_dlygate4sd3_1
Xhold41 mac1.sum_lvl2_ff\[52\] VPWR VGND net81 sg13g2_dlygate4sd3_1
Xhold52 mac1.sum_lvl1_ff\[7\] VPWR VGND net92 sg13g2_dlygate4sd3_1
Xhold63 mac1.products_ff\[150\] VPWR VGND net103 sg13g2_dlygate4sd3_1
Xhold74 mac2.products_ff\[68\] VPWR VGND net114 sg13g2_dlygate4sd3_1
Xhold85 mac2.products_ff\[14\] VPWR VGND net125 sg13g2_dlygate4sd3_1
Xhold96 mac1.sum_lvl1_ff\[87\] VPWR VGND net136 sg13g2_dlygate4sd3_1
XFILLER_16_389 VPWR VGND sg13g2_fill_2
XFILLER_32_838 VPWR VGND sg13g2_decap_8
XFILLER_40_882 VPWR VGND sg13g2_decap_8
XFILLER_6_45 VPWR VGND sg13g2_fill_1
X_3240_ _2831_ _2797_ _2829_ VPWR VGND sg13g2_xnor2_1
X_3171_ _2763_ net911 net969 VPWR VGND sg13g2_nand2_2
XFILLER_6_1027 VPWR VGND sg13g2_fill_2
Xfanout1072 net1076 net1072 VPWR VGND sg13g2_buf_8
Xfanout1050 net1051 net1050 VPWR VGND sg13g2_buf_8
Xfanout1061 net1062 net1061 VPWR VGND sg13g2_buf_8
Xfanout1083 net1086 net1083 VPWR VGND sg13g2_buf_8
XFILLER_48_982 VPWR VGND sg13g2_decap_8
Xfanout1094 net1095 net1094 VPWR VGND sg13g2_buf_2
X_5812_ _2506_ net280 net775 VPWR VGND sg13g2_nand2_1
X_5743_ _2395_ net1032 _2437_ _2438_ VPWR VGND sg13g2_a21o_1
X_5674_ _2375_ mac1.total_sum\[12\] mac2.total_sum\[12\] VPWR VGND sg13g2_nand2_1
X_4625_ _1426_ _1427_ _1409_ _1428_ VPWR VGND sg13g2_nand3_1
X_4556_ _1365_ _1359_ _1364_ VPWR VGND sg13g2_xnor2_1
Xhold500 _0061_ VPWR VGND net540 sg13g2_dlygate4sd3_1
X_3507_ _0356_ net944 net1020 net946 net1017 VPWR VGND sg13g2_a22oi_1
X_4487_ _1299_ _1298_ _1295_ VPWR VGND sg13g2_nand2b_1
XFILLER_44_1000 VPWR VGND sg13g2_decap_8
X_3438_ _0290_ _0278_ _0289_ VPWR VGND sg13g2_xnor2_1
X_6226_ net1096 VGND VPWR net174 mac1.sum_lvl2_ff\[24\] clknet_leaf_54_clk sg13g2_dfrbpq_2
X_3369_ VGND VPWR _2931_ _2945_ _2955_ _2944_ sg13g2_a21oi_1
X_6157_ net1087 VGND VPWR _0240_ DP_3.matrix\[76\] clknet_leaf_25_clk sg13g2_dfrbpq_1
XFILLER_46_908 VPWR VGND sg13g2_decap_8
X_5108_ _1892_ net800 net856 VPWR VGND sg13g2_nand2_2
X_6088_ net1073 VGND VPWR _0194_ DP_1.matrix\[78\] clknet_leaf_60_clk sg13g2_dfrbpq_2
XFILLER_39_982 VPWR VGND sg13g2_decap_8
XFILLER_26_632 VPWR VGND sg13g2_fill_1
X_5039_ _1820_ VPWR _1825_ VGND _1821_ _1823_ sg13g2_o21ai_1
XFILLER_40_156 VPWR VGND sg13g2_fill_2
XFILLER_41_679 VPWR VGND sg13g2_fill_2
XFILLER_5_514 VPWR VGND sg13g2_fill_1
XFILLER_5_503 VPWR VGND sg13g2_fill_2
XFILLER_5_525 VPWR VGND sg13g2_fill_1
Xoutput31 net31 uo_out[6] VPWR VGND sg13g2_buf_1
Xoutput20 net20 uio_out[3] VPWR VGND sg13g2_buf_1
XFILLER_45_952 VPWR VGND sg13g2_decap_8
X_4410_ _1192_ VPWR _1224_ VGND _1139_ _1190_ sg13g2_o21ai_1
X_5390_ _0003_ net482 _2154_ VPWR VGND sg13g2_xnor2_1
XFILLER_28_1006 VPWR VGND sg13g2_decap_8
X_4341_ net829 net826 net871 net1026 _1157_ VPWR VGND sg13g2_and4_1
X_4272_ VGND VPWR _1087_ _1088_ _1090_ _1070_ sg13g2_a21oi_1
X_6011_ net794 _0267_ VPWR VGND sg13g2_buf_1
X_3223_ _2763_ _2812_ _2814_ VPWR VGND sg13g2_and2_1
XFILLER_39_212 VPWR VGND sg13g2_fill_2
X_3154_ _2709_ _2708_ _2707_ _2747_ VPWR VGND sg13g2_a21o_2
XFILLER_28_908 VPWR VGND sg13g2_decap_8
X_3085_ _2656_ VPWR _2679_ VGND _2631_ _2654_ sg13g2_o21ai_1
XFILLER_35_440 VPWR VGND sg13g2_fill_2
XFILLER_36_985 VPWR VGND sg13g2_decap_8
X_3987_ _0818_ net997 net925 VPWR VGND sg13g2_nand2_1
X_5726_ _2422_ _2421_ net782 net781 net980 VPWR VGND sg13g2_a22oi_1
X_5657_ _2358_ _2360_ _2356_ _2362_ VPWR VGND sg13g2_nand3_1
X_5588_ mac2.sum_lvl3_ff\[29\] mac2.sum_lvl3_ff\[9\] _2308_ VPWR VGND sg13g2_and2_1
X_4608_ _1411_ net900 net837 VPWR VGND sg13g2_nand2_1
X_4539_ _1349_ _1344_ _1347_ VPWR VGND sg13g2_xnor2_1
Xhold341 _2115_ VPWR VGND net381 sg13g2_dlygate4sd3_1
Xhold330 mac1.sum_lvl2_ff\[3\] VPWR VGND net370 sg13g2_dlygate4sd3_1
Xhold352 _0006_ VPWR VGND net392 sg13g2_dlygate4sd3_1
Xhold374 DP_4.matrix\[4\] VPWR VGND net414 sg13g2_dlygate4sd3_1
Xhold396 _2140_ VPWR VGND net436 sg13g2_dlygate4sd3_1
Xhold363 DP_1.matrix\[44\] VPWR VGND net403 sg13g2_dlygate4sd3_1
Xhold385 _2305_ VPWR VGND net425 sg13g2_dlygate4sd3_1
Xfanout832 net366 net832 VPWR VGND sg13g2_buf_8
Xfanout821 net822 net821 VPWR VGND sg13g2_buf_8
X_6209_ net1097 VGND VPWR net118 mac1.sum_lvl2_ff\[4\] clknet_leaf_54_clk sg13g2_dfrbpq_1
Xfanout843 net404 net843 VPWR VGND sg13g2_buf_8
Xfanout810 net301 net810 VPWR VGND sg13g2_buf_1
Xfanout876 net340 net876 VPWR VGND sg13g2_buf_8
Xfanout854 net855 net854 VPWR VGND sg13g2_buf_8
Xfanout865 net521 net865 VPWR VGND sg13g2_buf_2
Xfanout887 DP_3.matrix\[36\] net887 VPWR VGND sg13g2_buf_1
Xfanout898 net525 net898 VPWR VGND sg13g2_buf_8
XFILLER_27_985 VPWR VGND sg13g2_decap_8
XFILLER_42_933 VPWR VGND sg13g2_decap_8
XFILLER_13_112 VPWR VGND sg13g2_fill_1
XFILLER_14_657 VPWR VGND sg13g2_fill_1
XFILLER_9_116 VPWR VGND sg13g2_fill_2
XFILLER_13_167 VPWR VGND sg13g2_fill_2
XFILLER_10_874 VPWR VGND sg13g2_fill_1
XFILLER_5_377 VPWR VGND sg13g2_fill_1
XFILLER_36_204 VPWR VGND sg13g2_fill_2
XFILLER_18_996 VPWR VGND sg13g2_decap_8
X_3910_ net941 net937 net989 net987 _0743_ VPWR VGND sg13g2_and4_1
XFILLER_33_933 VPWR VGND sg13g2_decap_8
X_4890_ VGND VPWR _1624_ _1653_ _1686_ _1655_ sg13g2_a21oi_1
X_3841_ net942 net939 net994 net993 _0676_ VPWR VGND sg13g2_and4_1
XFILLER_32_465 VPWR VGND sg13g2_decap_4
X_3772_ _0612_ _0599_ _0614_ VPWR VGND sg13g2_xor2_1
XFILLER_34_1021 VPWR VGND sg13g2_decap_8
X_5511_ _2248_ mac2.sum_lvl2_ff\[27\] net490 VPWR VGND sg13g2_xnor2_1
X_6491_ net1061 VGND VPWR _0047_ mac2.sum_lvl3_ff\[9\] clknet_leaf_17_clk sg13g2_dfrbpq_1
X_5442_ _2190_ _2192_ _2194_ VPWR VGND sg13g2_nor2_1
X_5373_ _0015_ _2137_ net436 VPWR VGND sg13g2_xnor2_1
X_4324_ net884 net883 net817 net814 _1140_ VPWR VGND sg13g2_and4_1
X_4255_ _1073_ net881 net822 VPWR VGND sg13g2_nand2_2
X_3206_ _2758_ VPWR _2797_ VGND _2713_ _2759_ sg13g2_o21ai_1
X_4186_ net831 net825 net882 net880 _1007_ VPWR VGND sg13g2_and4_1
X_3137_ _2726_ _2727_ _2729_ _2730_ VPWR VGND sg13g2_or3_1
X_3068_ _2659_ _2660_ _2662_ _2663_ VPWR VGND sg13g2_or3_1
XFILLER_24_933 VPWR VGND sg13g2_decap_8
X_5709_ _2397_ net790 _2405_ VPWR VGND sg13g2_and2_1
Xhold160 mac1.sum_lvl1_ff\[72\] VPWR VGND net200 sg13g2_dlygate4sd3_1
Xhold171 mac1.products_ff\[151\] VPWR VGND net211 sg13g2_dlygate4sd3_1
Xhold182 mac2.products_ff\[81\] VPWR VGND net222 sg13g2_dlygate4sd3_1
Xhold193 mac2.products_ff\[73\] VPWR VGND net233 sg13g2_dlygate4sd3_1
XFILLER_46_502 VPWR VGND sg13g2_decap_8
XFILLER_46_557 VPWR VGND sg13g2_fill_2
XFILLER_46_535 VPWR VGND sg13g2_fill_2
XFILLER_18_226 VPWR VGND sg13g2_fill_1
XFILLER_15_955 VPWR VGND sg13g2_decap_8
XFILLER_30_925 VPWR VGND sg13g2_decap_8
XFILLER_5_141 VPWR VGND sg13g2_fill_1
X_4040_ _0866_ _0868_ _0869_ _0870_ VPWR VGND sg13g2_nor3_1
XFILLER_49_384 VPWR VGND sg13g2_fill_1
XFILLER_49_362 VPWR VGND sg13g2_fill_2
XFILLER_37_502 VPWR VGND sg13g2_fill_2
X_5991_ net862 _0239_ VPWR VGND sg13g2_buf_1
X_4942_ _1735_ _1722_ _1734_ VPWR VGND sg13g2_xnor2_1
X_4873_ _1669_ net833 net893 net834 DP_3.matrix\[6\] VPWR VGND sg13g2_a22oi_1
XFILLER_21_936 VPWR VGND sg13g2_decap_8
X_3824_ _0657_ _0656_ _0651_ _0660_ VPWR VGND sg13g2_a21o_1
X_3755_ _0591_ VPWR _0597_ VGND _0568_ _0569_ sg13g2_o21ai_1
X_3686_ _0531_ _0484_ _0529_ VPWR VGND sg13g2_xnor2_1
X_6474_ net1121 VGND VPWR net239 mac2.sum_lvl2_ff\[27\] clknet_leaf_40_clk sg13g2_dfrbpq_2
X_5425_ _0027_ _2178_ net321 VPWR VGND sg13g2_xnor2_1
X_5356_ VPWR VGND _2121_ _2120_ _2119_ mac1.sum_lvl2_ff\[24\] _2127_ mac1.sum_lvl2_ff\[5\]
+ sg13g2_a221oi_1
X_5287_ _2066_ _2065_ _2062_ VPWR VGND sg13g2_nand2b_1
X_4307_ _1124_ _1104_ _1122_ _1123_ VPWR VGND sg13g2_and3_1
X_4238_ _1055_ _1056_ _1038_ _1057_ VPWR VGND sg13g2_nand3_1
X_4169_ _0994_ _0988_ _0993_ VPWR VGND sg13g2_xnor2_1
XFILLER_43_505 VPWR VGND sg13g2_fill_2
XFILLER_23_32 VPWR VGND sg13g2_fill_1
XFILLER_11_479 VPWR VGND sg13g2_fill_1
XFILLER_3_645 VPWR VGND sg13g2_fill_1
XFILLER_47_899 VPWR VGND sg13g2_decap_8
XFILLER_34_516 VPWR VGND sg13g2_decap_4
XFILLER_15_730 VPWR VGND sg13g2_fill_2
XFILLER_31_1024 VPWR VGND sg13g2_decap_4
XFILLER_7_962 VPWR VGND sg13g2_decap_8
X_3540_ _0389_ _0386_ _0388_ VPWR VGND sg13g2_nand2_1
XFILLER_6_450 VPWR VGND sg13g2_fill_1
X_3471_ _0105_ _0294_ _0321_ VPWR VGND sg13g2_xnor2_1
X_5210_ _1992_ _1991_ _1964_ VPWR VGND sg13g2_nand2b_1
X_6190_ net1070 VGND VPWR net199 mac1.sum_lvl1_ff\[37\] clknet_leaf_62_clk sg13g2_dfrbpq_1
XFILLER_9_1014 VPWR VGND sg13g2_decap_8
X_5141_ _1920_ VPWR _1924_ VGND _1877_ _1922_ sg13g2_o21ai_1
X_5072_ net806 net855 net813 _1857_ VPWR VGND net853 sg13g2_nand4_1
X_4023_ _0821_ VPWR _0853_ VGND _0768_ _0819_ sg13g2_o21ai_1
XFILLER_38_877 VPWR VGND sg13g2_decap_8
X_5974_ net916 _0214_ VPWR VGND sg13g2_buf_1
X_4925_ _1718_ _1691_ _1719_ VPWR VGND sg13g2_xor2_1
XFILLER_33_560 VPWR VGND sg13g2_fill_1
XFILLER_40_519 VPWR VGND sg13g2_decap_4
X_4856_ _1621_ _1652_ _1619_ _1653_ VPWR VGND sg13g2_nand3_1
X_3807_ _0643_ _0633_ _0644_ VPWR VGND sg13g2_xor2_1
X_4787_ _1586_ _1556_ _1585_ VPWR VGND sg13g2_nand2_1
X_3738_ _0581_ _0580_ _0577_ VPWR VGND sg13g2_nand2b_1
X_3669_ _0513_ _0511_ _0106_ VPWR VGND sg13g2_xor2_1
X_6457_ net1103 VGND VPWR net61 mac2.sum_lvl2_ff\[7\] clknet_leaf_43_clk sg13g2_dfrbpq_1
XFILLER_0_604 VPWR VGND sg13g2_fill_2
X_5408_ mac1.sum_lvl3_ff\[1\] mac1.sum_lvl3_ff\[21\] _2168_ VPWR VGND sg13g2_xor2_1
X_6388_ net1119 VGND VPWR _0135_ mac2.products_ff\[75\] clknet_leaf_41_clk sg13g2_dfrbpq_1
X_5339_ mac1.sum_lvl2_ff\[21\] mac1.sum_lvl2_ff\[2\] _2114_ VPWR VGND sg13g2_and2_1
Xclkbuf_leaf_67_clk clknet_4_0_0_clk clknet_leaf_67_clk VPWR VGND sg13g2_buf_8
XFILLER_29_855 VPWR VGND sg13g2_decap_8
XFILLER_44_825 VPWR VGND sg13g2_decap_4
XFILLER_34_42 VPWR VGND sg13g2_fill_2
XFILLER_34_97 VPWR VGND sg13g2_fill_1
XFILLER_7_269 VPWR VGND sg13g2_fill_1
XFILLER_4_921 VPWR VGND sg13g2_fill_2
XFILLER_4_965 VPWR VGND sg13g2_decap_8
XFILLER_19_332 VPWR VGND sg13g2_fill_1
Xclkbuf_leaf_58_clk clknet_4_9_0_clk clknet_leaf_58_clk VPWR VGND sg13g2_buf_8
Xclkbuf_4_11_0_clk clknet_0_clk clknet_4_11_0_clk VPWR VGND sg13g2_buf_8
XFILLER_35_825 VPWR VGND sg13g2_decap_8
X_4710_ _1510_ net900 net832 VPWR VGND sg13g2_nand2_1
X_5690_ net23 _2385_ _2388_ VPWR VGND sg13g2_xnor2_1
X_4641_ _1443_ net898 net837 VPWR VGND sg13g2_nand2_1
X_4572_ _1377_ net901 net841 VPWR VGND sg13g2_nand2_1
XFILLER_6_280 VPWR VGND sg13g2_fill_1
X_3523_ net957 net1007 net961 _0372_ VPWR VGND net1006 sg13g2_nand4_1
X_6311_ net1047 VGND VPWR net156 mac1.sum_lvl3_ff\[30\] clknet_leaf_5_clk sg13g2_dfrbpq_1
X_3454_ net958 net1011 net962 _0305_ VPWR VGND net1009 sg13g2_nand4_1
X_6242_ net1041 VGND VPWR net158 mac1.sum_lvl2_ff\[43\] clknet_leaf_0_clk sg13g2_dfrbpq_1
X_3385_ VPWR _2971_ _2970_ VGND sg13g2_inv_1
X_6173_ net1106 VGND VPWR _0252_ DP_4.matrix\[36\] clknet_leaf_32_clk sg13g2_dfrbpq_2
X_5124_ _1896_ VPWR _1908_ VGND _1904_ _1906_ sg13g2_o21ai_1
Xclkbuf_leaf_49_clk clknet_4_10_0_clk clknet_leaf_49_clk VPWR VGND sg13g2_buf_8
X_5055_ _1817_ VPWR _1840_ VGND _1782_ _1815_ sg13g2_o21ai_1
X_4006_ _0835_ _0836_ _0837_ VPWR VGND sg13g2_nor2_1
XFILLER_26_836 VPWR VGND sg13g2_decap_4
XFILLER_38_685 VPWR VGND sg13g2_fill_2
X_5957_ net983 _0189_ VPWR VGND sg13g2_buf_1
X_4908_ _1703_ _1688_ _1702_ VPWR VGND sg13g2_nand2_1
X_5888_ net951 net772 _2568_ VPWR VGND sg13g2_nor2_1
X_4839_ _1635_ _1632_ _1636_ VPWR VGND sg13g2_xor2_1
XFILLER_20_33 VPWR VGND sg13g2_fill_2
X_6509_ net1044 VGND VPWR net339 mac2.total_sum\[11\] clknet_leaf_6_clk sg13g2_dfrbpq_1
XFILLER_1_924 VPWR VGND sg13g2_decap_8
XFILLER_29_42 VPWR VGND sg13g2_fill_1
Xhold31 mac2.products_ff\[137\] VPWR VGND net71 sg13g2_dlygate4sd3_1
Xhold20 mac2.sum_lvl2_ff\[52\] VPWR VGND net60 sg13g2_dlygate4sd3_1
Xhold53 mac1.sum_lvl1_ff\[75\] VPWR VGND net93 sg13g2_dlygate4sd3_1
Xhold64 mac2.products_ff\[8\] VPWR VGND net104 sg13g2_dlygate4sd3_1
Xhold42 mac2.sum_lvl1_ff\[47\] VPWR VGND net82 sg13g2_dlygate4sd3_1
Xhold75 mac2.sum_lvl1_ff\[83\] VPWR VGND net115 sg13g2_dlygate4sd3_1
Xhold97 mac2.sum_lvl2_ff\[41\] VPWR VGND net137 sg13g2_dlygate4sd3_1
Xhold86 mac2.products_ff\[72\] VPWR VGND net126 sg13g2_dlygate4sd3_1
XFILLER_17_836 VPWR VGND sg13g2_fill_2
XFILLER_45_96 VPWR VGND sg13g2_decap_4
XFILLER_40_861 VPWR VGND sg13g2_decap_8
XFILLER_6_1006 VPWR VGND sg13g2_decap_8
X_3170_ _2762_ net975 net909 VPWR VGND sg13g2_nand2_1
Xfanout1040 net1043 net1040 VPWR VGND sg13g2_buf_8
Xfanout1073 net1075 net1073 VPWR VGND sg13g2_buf_8
Xfanout1051 net1063 net1051 VPWR VGND sg13g2_buf_8
Xfanout1062 net1063 net1062 VPWR VGND sg13g2_buf_8
XFILLER_39_427 VPWR VGND sg13g2_decap_4
XFILLER_48_961 VPWR VGND sg13g2_decap_8
Xfanout1095 net1107 net1095 VPWR VGND sg13g2_buf_8
Xfanout1084 net1086 net1084 VPWR VGND sg13g2_buf_8
X_5811_ _2505_ _2486_ _2504_ VPWR VGND sg13g2_nand2b_1
XFILLER_16_880 VPWR VGND sg13g2_decap_8
XFILLER_23_839 VPWR VGND sg13g2_fill_2
X_5742_ net773 _2436_ _2437_ VPWR VGND sg13g2_and2_1
XFILLER_16_891 VPWR VGND sg13g2_fill_1
X_5673_ net20 _2373_ _2374_ VPWR VGND sg13g2_xnor2_1
X_4624_ _1415_ VPWR _1427_ VGND _1423_ _1425_ sg13g2_o21ai_1
Xhold501 DP_4.matrix\[8\] VPWR VGND net541 sg13g2_dlygate4sd3_1
X_4555_ _1364_ _1351_ _1363_ VPWR VGND sg13g2_xnor2_1
X_3506_ _0332_ VPWR _0355_ VGND _0297_ _0330_ sg13g2_o21ai_1
X_4486_ _1297_ _1270_ _1298_ VPWR VGND sg13g2_xor2_1
X_3437_ _0289_ _0286_ _0288_ VPWR VGND sg13g2_nand2_1
X_6225_ net1097 VGND VPWR net143 mac1.sum_lvl2_ff\[23\] clknet_leaf_54_clk sg13g2_dfrbpq_1
X_3368_ _2954_ _2953_ _2948_ _2952_ _2930_ VPWR VGND sg13g2_a22oi_1
X_6156_ net1112 VGND VPWR net70 mac1.sum_lvl1_ff\[11\] clknet_leaf_46_clk sg13g2_dfrbpq_1
X_5107_ _1891_ net860 net798 VPWR VGND sg13g2_nand2_1
Xheichips25_template_33 VPWR VGND uio_oe[0] sg13g2_tiehi
X_6087_ net1064 VGND VPWR _0068_ mac1.products_ff\[140\] clknet_leaf_66_clk sg13g2_dfrbpq_1
X_3299_ _2888_ _2840_ _2886_ VPWR VGND sg13g2_xnor2_1
XFILLER_39_961 VPWR VGND sg13g2_decap_8
X_5038_ _1820_ _1821_ _1823_ _1824_ VPWR VGND sg13g2_or3_1
XFILLER_25_110 VPWR VGND sg13g2_fill_2
XFILLER_14_817 VPWR VGND sg13g2_fill_2
XFILLER_26_699 VPWR VGND sg13g2_fill_2
XFILLER_13_349 VPWR VGND sg13g2_fill_2
XFILLER_31_21 VPWR VGND sg13g2_fill_1
Xoutput32 net32 uo_out[7] VPWR VGND sg13g2_buf_1
Xoutput21 net21 uio_out[4] VPWR VGND sg13g2_buf_1
XFILLER_36_408 VPWR VGND sg13g2_decap_8
XFILLER_45_931 VPWR VGND sg13g2_decap_8
XFILLER_36_419 VPWR VGND sg13g2_fill_1
XFILLER_32_647 VPWR VGND sg13g2_decap_4
XFILLER_9_876 VPWR VGND sg13g2_fill_1
X_4340_ _1156_ net823 net873 VPWR VGND sg13g2_nand2_1
X_4271_ _1087_ _1088_ _1070_ _1089_ VPWR VGND sg13g2_nand3_1
X_6010_ net797 _0266_ VPWR VGND sg13g2_buf_1
X_3222_ VGND VPWR _2813_ _2812_ _2763_ sg13g2_or2_1
X_3153_ _2745_ _2681_ _2746_ VPWR VGND sg13g2_xor2_1
X_3084_ _2678_ _2670_ _2672_ VPWR VGND sg13g2_nand2_1
XFILLER_36_964 VPWR VGND sg13g2_decap_8
XFILLER_10_308 VPWR VGND sg13g2_fill_2
X_3986_ _0817_ net1002 net1031 VPWR VGND sg13g2_nand2_1
X_5725_ net1015 net1000 net789 _2421_ VPWR VGND sg13g2_mux2_1
X_5656_ VGND VPWR _2356_ _2358_ _2361_ _2360_ sg13g2_a21oi_1
X_4607_ _1410_ net904 net836 VPWR VGND sg13g2_nand2_1
Xhold320 _0031_ VPWR VGND net360 sg13g2_dlygate4sd3_1
X_5587_ net423 net429 net425 _2307_ VPWR VGND sg13g2_a21o_1
X_4538_ _1348_ _1347_ _1344_ VPWR VGND sg13g2_nand2b_1
Xhold353 DP_2.matrix\[2\] VPWR VGND net393 sg13g2_dlygate4sd3_1
Xhold342 _0008_ VPWR VGND net382 sg13g2_dlygate4sd3_1
Xhold331 _2118_ VPWR VGND net371 sg13g2_dlygate4sd3_1
Xfanout800 net801 net800 VPWR VGND sg13g2_buf_8
Xhold375 _0248_ VPWR VGND net415 sg13g2_dlygate4sd3_1
Xhold386 _0062_ VPWR VGND net426 sg13g2_dlygate4sd3_1
Xhold364 DP_4.matrix\[1\] VPWR VGND net404 sg13g2_dlygate4sd3_1
X_4469_ _1280_ _1258_ _1282_ VPWR VGND sg13g2_xor2_1
Xfanout833 DP_4.matrix\[7\] net833 VPWR VGND sg13g2_buf_1
Xfanout822 net497 net822 VPWR VGND sg13g2_buf_8
X_6208_ net1095 VGND VPWR net120 mac1.sum_lvl2_ff\[3\] clknet_leaf_55_clk sg13g2_dfrbpq_1
Xhold397 _0015_ VPWR VGND net437 sg13g2_dlygate4sd3_1
Xfanout811 net812 net811 VPWR VGND sg13g2_buf_2
Xfanout855 DP_3.matrix\[78\] net855 VPWR VGND sg13g2_buf_8
Xfanout866 net867 net866 VPWR VGND sg13g2_buf_8
Xfanout844 DP_4.matrix\[1\] net844 VPWR VGND sg13g2_buf_1
XFILLER_46_717 VPWR VGND sg13g2_fill_2
Xfanout877 DP_3.matrix\[41\] net877 VPWR VGND sg13g2_buf_8
Xfanout888 net890 net888 VPWR VGND sg13g2_buf_2
X_6139_ net1106 VGND VPWR _0228_ DP_3.matrix\[36\] clknet_leaf_31_clk sg13g2_dfrbpq_1
Xfanout899 net476 net899 VPWR VGND sg13g2_buf_2
XFILLER_27_964 VPWR VGND sg13g2_decap_8
XFILLER_39_791 VPWR VGND sg13g2_fill_1
XFILLER_42_912 VPWR VGND sg13g2_decap_8
XFILLER_14_603 VPWR VGND sg13g2_fill_2
XFILLER_26_463 VPWR VGND sg13g2_fill_2
XFILLER_42_989 VPWR VGND sg13g2_decap_8
XFILLER_13_157 VPWR VGND sg13g2_fill_1
XFILLER_41_488 VPWR VGND sg13g2_decap_4
XFILLER_49_500 VPWR VGND sg13g2_fill_2
XFILLER_49_566 VPWR VGND sg13g2_fill_1
XFILLER_18_975 VPWR VGND sg13g2_decap_8
XFILLER_33_912 VPWR VGND sg13g2_decap_8
XFILLER_44_260 VPWR VGND sg13g2_fill_2
X_3840_ _0675_ net935 net997 VPWR VGND sg13g2_nand2_1
XFILLER_33_989 VPWR VGND sg13g2_decap_8
XFILLER_34_1000 VPWR VGND sg13g2_decap_8
X_3771_ VGND VPWR _0613_ _0612_ _0599_ sg13g2_or2_1
X_5510_ _2246_ _2247_ _0045_ VPWR VGND sg13g2_and2_1
X_6490_ net1051 VGND VPWR net493 mac2.sum_lvl3_ff\[8\] clknet_leaf_7_clk sg13g2_dfrbpq_1
X_5441_ _2192_ net421 _0030_ VPWR VGND sg13g2_nor2b_1
X_5372_ _2140_ net435 _2138_ VPWR VGND sg13g2_nand2b_1
X_4323_ _1139_ net883 net814 VPWR VGND sg13g2_nand2_1
X_4254_ _1072_ net881 net820 VPWR VGND sg13g2_nand2_1
X_3205_ _2786_ VPWR _2796_ VGND _2715_ _2787_ sg13g2_o21ai_1
X_4185_ _1006_ net885 net823 VPWR VGND sg13g2_nand2_1