* NGSPICE file created from heichips25_template.ext - technology: ihp-sg13g2

* Black-box entry subcircuit for sg13g2_a21o_1 abstract view
.subckt sg13g2_a21o_1 A2 A1 B1 X VDD VSS
.ends

* Black-box entry subcircuit for sg13g2_xor2_1 abstract view
.subckt sg13g2_xor2_1 B A X VDD VSS
.ends

* Black-box entry subcircuit for sg13g2_or3_1 abstract view
.subckt sg13g2_or3_1 A B C X VDD VSS
.ends

* Black-box entry subcircuit for sg13g2_fill_2 abstract view
.subckt sg13g2_fill_2 VDD VSS
.ends

* Black-box entry subcircuit for sg13g2_nor2b_1 abstract view
.subckt sg13g2_nor2b_1 A B_N Y VDD VSS
.ends

* Black-box entry subcircuit for sg13g2_dlygate4sd3_1 abstract view
.subckt sg13g2_dlygate4sd3_1 A VDD VSS X
.ends

* Black-box entry subcircuit for sg13g2_buf_8 abstract view
.subckt sg13g2_buf_8 A X VDD VSS
.ends

* Black-box entry subcircuit for sg13g2_buf_1 abstract view
.subckt sg13g2_buf_1 A X VDD VSS
.ends

* Black-box entry subcircuit for sg13g2_buf_2 abstract view
.subckt sg13g2_buf_2 A X VDD VSS
.ends

* Black-box entry subcircuit for sg13g2_decap_8 abstract view
.subckt sg13g2_decap_8 VDD VSS
.ends

* Black-box entry subcircuit for sg13g2_fill_1 abstract view
.subckt sg13g2_fill_1 VDD VSS
.ends

* Black-box entry subcircuit for sg13g2_nand2_1 abstract view
.subckt sg13g2_nand2_1 Y A B VDD VSS
.ends

* Black-box entry subcircuit for sg13g2_nand3_1 abstract view
.subckt sg13g2_nand3_1 B C A Y VDD VSS
.ends

* Black-box entry subcircuit for sg13g2_dfrbpq_1 abstract view
.subckt sg13g2_dfrbpq_1 RESET_B VSS VDD D Q CLK
.ends

* Black-box entry subcircuit for sg13g2_xnor2_1 abstract view
.subckt sg13g2_xnor2_1 Y A B VDD VSS
.ends

* Black-box entry subcircuit for sg13g2_nor2_1 abstract view
.subckt sg13g2_nor2_1 A B Y VDD VSS
.ends

* Black-box entry subcircuit for sg13g2_and2_1 abstract view
.subckt sg13g2_and2_1 A B X VDD VSS
.ends

* Black-box entry subcircuit for sg13g2_a21oi_2 abstract view
.subckt sg13g2_a21oi_2 VSS VDD B1 Y A2 A1
.ends

* Black-box entry subcircuit for sg13g2_o21ai_1 abstract view
.subckt sg13g2_o21ai_1 B1 VDD Y VSS A1 A2
.ends

* Black-box entry subcircuit for sg13g2_inv_1 abstract view
.subckt sg13g2_inv_1 VDD Y A VSS
.ends

* Black-box entry subcircuit for sg13g2_decap_4 abstract view
.subckt sg13g2_decap_4 VDD VSS
.ends

* Black-box entry subcircuit for sg13g2_a21oi_1 abstract view
.subckt sg13g2_a21oi_1 VSS VDD A1 A2 Y B1
.ends

* Black-box entry subcircuit for sg13g2_nand2b_1 abstract view
.subckt sg13g2_nand2b_1 Y B A_N VDD VSS
.ends

* Black-box entry subcircuit for sg13g2_and3_2 abstract view
.subckt sg13g2_and3_2 X A B C VDD VSS
.ends

* Black-box entry subcircuit for sg13g2_or2_1 abstract view
.subckt sg13g2_or2_1 VSS VDD X B A
.ends

* Black-box entry subcircuit for sg13g2_a21o_2 abstract view
.subckt sg13g2_a21o_2 A2 A1 B1 X VDD VSS
.ends

* Black-box entry subcircuit for sg13g2_and4_1 abstract view
.subckt sg13g2_and4_1 A B C D X VDD VSS
.ends

* Black-box entry subcircuit for sg13g2_nor2b_2 abstract view
.subckt sg13g2_nor2b_2 A B_N Y VDD VSS
.ends

* Black-box entry subcircuit for sg13g2_dfrbpq_2 abstract view
.subckt sg13g2_dfrbpq_2 RESET_B VSS VDD D Q CLK
.ends

* Black-box entry subcircuit for sg13g2_and3_1 abstract view
.subckt sg13g2_and3_1 X A B C VDD VSS
.ends

* Black-box entry subcircuit for sg13g2_a22oi_1 abstract view
.subckt sg13g2_a22oi_1 Y B1 B2 A2 A1 VDD VSS
.ends

* Black-box entry subcircuit for sg13g2_tiehi abstract view
.subckt sg13g2_tiehi VDD VSS L_HI
.ends

* Black-box entry subcircuit for sg13g2_nand4_1 abstract view
.subckt sg13g2_nand4_1 B C A Y VDD VSS D
.ends

* Black-box entry subcircuit for sg13g2_nor3_1 abstract view
.subckt sg13g2_nor3_1 A B C Y VDD VSS
.ends

* Black-box entry subcircuit for sg13g2_nand2_2 abstract view
.subckt sg13g2_nand2_2 Y A B VDD VSS
.ends

* Black-box entry subcircuit for sg13g2_nand2b_2 abstract view
.subckt sg13g2_nand2b_2 Y B VDD VSS A_N
.ends

* Black-box entry subcircuit for sg13g2_nand3b_1 abstract view
.subckt sg13g2_nand3b_1 B C Y VDD VSS A_N
.ends

* Black-box entry subcircuit for sg13g2_a221oi_1 abstract view
.subckt sg13g2_a221oi_1 VDD VSS B2 C1 B1 A1 Y A2
.ends

* Black-box entry subcircuit for sg13g2_inv_2 abstract view
.subckt sg13g2_inv_2 Y A VDD VSS
.ends

* Black-box entry subcircuit for sg13g2_nor2_2 abstract view
.subckt sg13g2_nor2_2 A B Y VDD VSS
.ends

* Black-box entry subcircuit for sg13g2_mux2_1 abstract view
.subckt sg13g2_mux2_1 A0 A1 S X VDD VSS
.ends

* Black-box entry subcircuit for sg13g2_inv_4 abstract view
.subckt sg13g2_inv_4 A Y VDD VSS
.ends

* Black-box entry subcircuit for sg13g2_nor4_2 abstract view
.subckt sg13g2_nor4_2 A B C Y VSS VDD D
.ends

* Black-box entry subcircuit for sg13g2_nor4_1 abstract view
.subckt sg13g2_nor4_1 A B C D Y VDD VSS
.ends

* Black-box entry subcircuit for sg13g2_nor3_2 abstract view
.subckt sg13g2_nor3_2 A B C Y VDD VSS
.ends

.subckt heichips25_template VGND VPWR clk ena rst_n ui_in[0] ui_in[1] ui_in[2] ui_in[3]
+ ui_in[4] ui_in[5] ui_in[6] ui_in[7] uio_in[0] uio_in[1] uio_in[2] uio_in[3] uio_in[4]
+ uio_in[5] uio_in[6] uio_in[7] uio_oe[0] uio_oe[1] uio_oe[2] uio_oe[3] uio_oe[4]
+ uio_oe[5] uio_oe[6] uio_oe[7] uio_out[0] uio_out[1] uio_out[2] uio_out[3] uio_out[4]
+ uio_out[5] uio_out[6] uio_out[7] uo_out[0] uo_out[1] uo_out[2] uo_out[3] uo_out[4]
+ uo_out[5] uo_out[6] uo_out[7]
X_3155_ _2727_ _2717_ _2725_ _2745_ VPWR VGND sg13g2_a21o_1
X_3086_ _2677_ _2657_ _0068_ VPWR VGND sg13g2_xor2_1
X_3988_ _0777_ _0778_ _0780_ _0781_ VPWR VGND sg13g2_or3_1
XFILLER_23_667 VPWR VGND sg13g2_fill_2
X_5727_ DP_1.Q_range.out_data\[4\] DP_1.I_range.out_data\[5\] _2384_ VPWR VGND sg13g2_nor2b_1
X_5658_ mac2.total_sum\[1\] mac1.total_sum\[1\] _2331_ VPWR VGND sg13g2_xor2_1
X_5589_ net498 mac2.sum_lvl3_ff\[22\] _2277_ VPWR VGND sg13g2_xor2_1
X_4609_ _1373_ _1374_ _1375_ VPWR VGND sg13g2_nor2b_1
Xhold340 _0246_ VPWR VGND net380 sg13g2_dlygate4sd3_1
Xhold351 _0008_ VPWR VGND net391 sg13g2_dlygate4sd3_1
Xhold362 _2311_ VPWR VGND net402 sg13g2_dlygate4sd3_1
Xhold395 DP_3.matrix\[2\] VPWR VGND net435 sg13g2_dlygate4sd3_1
Xhold384 DP_1.matrix\[72\] VPWR VGND net424 sg13g2_dlygate4sd3_1
Xhold373 _0052_ VPWR VGND net413 sg13g2_dlygate4sd3_1
Xfanout820 net821 net820 VPWR VGND sg13g2_buf_8
Xfanout842 net329 net842 VPWR VGND sg13g2_buf_8
Xfanout831 net832 net831 VPWR VGND sg13g2_buf_1
Xfanout853 net405 net853 VPWR VGND sg13g2_buf_2
Xfanout875 net876 net875 VPWR VGND sg13g2_buf_8
Xfanout864 net865 net864 VPWR VGND sg13g2_buf_2
Xfanout897 net356 net897 VPWR VGND sg13g2_buf_8
Xfanout886 net887 net886 VPWR VGND sg13g2_buf_8
XFILLER_26_41 VPWR VGND sg13g2_fill_2
XFILLER_27_951 VPWR VGND sg13g2_decap_8
XFILLER_41_420 VPWR VGND sg13g2_fill_1
XFILLER_42_976 VPWR VGND sg13g2_decap_8
XFILLER_10_840 VPWR VGND sg13g2_decap_8
XFILLER_6_888 VPWR VGND sg13g2_decap_8
XFILLER_3_1007 VPWR VGND sg13g2_decap_8
XFILLER_37_726 VPWR VGND sg13g2_fill_1
XFILLER_18_973 VPWR VGND sg13g2_decap_8
X_4960_ _1713_ _1707_ _1715_ VPWR VGND sg13g2_xor2_1
XFILLER_45_792 VPWR VGND sg13g2_fill_2
X_4891_ _1649_ _1646_ _1648_ VPWR VGND sg13g2_nand2_1
X_3911_ _0703_ _0704_ _0698_ _0706_ VPWR VGND sg13g2_nand3_1
X_3842_ _0639_ net1022 net953 VPWR VGND sg13g2_nand2_1
X_6561_ net1067 VGND VPWR _0047_ mac2.sum_lvl3_ff\[9\] clknet_leaf_15_clk sg13g2_dfrbpq_1
X_3773_ _0577_ _0568_ _0576_ VPWR VGND sg13g2_xnor2_1
X_5512_ mac2.sum_lvl2_ff\[20\] mac2.sum_lvl2_ff\[1\] _2217_ VPWR VGND sg13g2_nor2_1
X_6492_ net1144 VGND VPWR net235 mac2.sum_lvl1_ff\[8\] clknet_leaf_41_clk sg13g2_dfrbpq_1
XFILLER_8_192 VPWR VGND sg13g2_fill_1
X_5443_ mac1.sum_lvl3_ff\[22\] net381 _2163_ VPWR VGND sg13g2_and2_1
X_5374_ VGND VPWR _2107_ _2109_ net390 _2106_ sg13g2_a21oi_2
X_4325_ _1103_ _1097_ _1102_ VPWR VGND sg13g2_xnor2_1
X_4256_ _1034_ _1031_ _1036_ VPWR VGND sg13g2_xor2_1
X_3207_ _2756_ VPWR _2796_ VGND _2754_ _2757_ sg13g2_o21ai_1
X_4187_ _0974_ _0949_ _0973_ VPWR VGND sg13g2_xnor2_1
X_3138_ _2727_ _2726_ _2717_ _2729_ VPWR VGND sg13g2_a21o_1
XFILLER_28_748 VPWR VGND sg13g2_fill_2
X_3069_ VPWR _2662_ _2661_ VGND sg13g2_inv_1
XFILLER_24_954 VPWR VGND sg13g2_decap_8
XFILLER_3_825 VPWR VGND sg13g2_decap_8
Xhold170 mac2.sum_lvl1_ff\[38\] VPWR VGND net210 sg13g2_dlygate4sd3_1
Xhold181 mac2.sum_lvl1_ff\[7\] VPWR VGND net221 sg13g2_dlygate4sd3_1
Xhold192 mac2.products_ff\[148\] VPWR VGND net232 sg13g2_dlygate4sd3_1
XFILLER_14_420 VPWR VGND sg13g2_fill_2
XFILLER_15_932 VPWR VGND sg13g2_decap_8
XFILLER_18_1015 VPWR VGND sg13g2_decap_8
XFILLER_14_475 VPWR VGND sg13g2_decap_4
XFILLER_14_486 VPWR VGND sg13g2_fill_1
XFILLER_5_173 VPWR VGND sg13g2_fill_2
X_5090_ _1834_ _1835_ _1836_ VPWR VGND sg13g2_nor2b_1
X_4110_ _0900_ _0880_ _0899_ VPWR VGND sg13g2_xnor2_1
X_4041_ _0833_ _0818_ _0832_ VPWR VGND sg13g2_nand2_1
X_5992_ _2620_ net863 net789 VPWR VGND sg13g2_nand2_1
X_4943_ _1697_ _1698_ _1699_ VPWR VGND sg13g2_and2_1
X_4874_ _1592_ VPWR _1632_ VGND _1589_ _1593_ sg13g2_o21ai_1
XFILLER_21_957 VPWR VGND sg13g2_decap_8
X_3825_ _0624_ _0616_ _0623_ VPWR VGND sg13g2_nand2_1
X_3756_ VGND VPWR _0508_ _0528_ _0561_ _0530_ sg13g2_a21oi_1
X_6544_ net1143 VGND VPWR net89 mac2.sum_lvl2_ff\[31\] clknet_leaf_42_clk sg13g2_dfrbpq_1
Xclkbuf_4_12_0_clk clknet_0_clk clknet_4_12_0_clk VPWR VGND sg13g2_buf_8
X_6475_ net1075 VGND VPWR _0157_ mac2.products_ff\[143\] clknet_leaf_22_clk sg13g2_dfrbpq_1
X_3687_ _0494_ _0484_ _0493_ VPWR VGND sg13g2_nand2b_1
X_5426_ _2151_ net466 _2149_ VPWR VGND sg13g2_nand2b_1
X_5357_ VGND VPWR _2064_ _2087_ _2095_ _2089_ sg13g2_a21oi_1
X_5288_ _1998_ VPWR _2029_ VGND _1996_ _1999_ sg13g2_o21ai_1
X_4308_ _1087_ _1057_ _1085_ VPWR VGND sg13g2_xnor2_1
X_4239_ _1015_ VPWR _1020_ VGND _1016_ _1018_ sg13g2_o21ai_1
XFILLER_15_228 VPWR VGND sg13g2_fill_1
XFILLER_24_740 VPWR VGND sg13g2_decap_8
XFILLER_12_913 VPWR VGND sg13g2_decap_8
XFILLER_24_751 VPWR VGND sg13g2_fill_2
XFILLER_8_906 VPWR VGND sg13g2_decap_8
XFILLER_48_1019 VPWR VGND sg13g2_decap_8
XFILLER_3_677 VPWR VGND sg13g2_fill_2
XFILLER_48_94 VPWR VGND sg13g2_fill_1
XFILLER_30_710 VPWR VGND sg13g2_fill_1
X_3610_ _0396_ _0416_ _0418_ _0419_ VPWR VGND sg13g2_or3_1
X_4590_ _1358_ net923 net863 _0084_ VPWR VGND sg13g2_and3_2
XFILLER_7_961 VPWR VGND sg13g2_decap_8
X_3541_ _0351_ _0347_ _0350_ VPWR VGND sg13g2_nand2_1
X_3472_ _0283_ _0282_ _0285_ VPWR VGND sg13g2_xor2_1
X_6260_ net1064 VGND VPWR net239 mac1.sum_lvl1_ff\[36\] clknet_leaf_2_clk sg13g2_dfrbpq_1
X_6191_ net1091 VGND VPWR _0211_ DP_2.matrix\[43\] clknet_leaf_65_clk sg13g2_dfrbpq_1
X_5211_ _1955_ _1918_ _1953_ VPWR VGND sg13g2_nand2_1
X_5142_ VGND VPWR _1887_ _1885_ _1842_ sg13g2_or2_1
XFILLER_29_0 VPWR VGND sg13g2_fill_1
XFILLER_29_309 VPWR VGND sg13g2_fill_1
X_5073_ _1817_ _1818_ _1812_ _1820_ VPWR VGND sg13g2_nand3_1
X_4024_ _0807_ _0815_ _0816_ VPWR VGND sg13g2_nor2_1
X_5975_ _2609_ _2489_ _2504_ VPWR VGND sg13g2_xnor2_1
X_4926_ _1661_ VPWR _1682_ VGND _1658_ _1662_ sg13g2_o21ai_1
X_4857_ _1580_ _1614_ _1578_ _1616_ VPWR VGND sg13g2_nand3_1
X_3808_ _0598_ VPWR _0610_ VGND _0570_ _0596_ sg13g2_o21ai_1
X_6527_ net1143 VGND VPWR net256 mac2.sum_lvl2_ff\[11\] clknet_leaf_42_clk sg13g2_dfrbpq_1
X_4788_ _1531_ VPWR _1548_ VGND _1510_ _1532_ sg13g2_o21ai_1
X_3739_ _0544_ net1032 net1053 VPWR VGND sg13g2_nand2_1
X_6458_ net1134 VGND VPWR _0134_ mac2.products_ff\[74\] clknet_leaf_44_clk sg13g2_dfrbpq_1
X_6389_ net1062 VGND VPWR net288 mac1.sum_lvl3_ff\[1\] clknet_leaf_2_clk sg13g2_dfrbpq_1
X_5409_ _2132_ _2130_ _2131_ _2137_ VPWR VGND sg13g2_a21o_2
XFILLER_47_139 VPWR VGND sg13g2_fill_2
XFILLER_28_353 VPWR VGND sg13g2_fill_1
XFILLER_44_868 VPWR VGND sg13g2_fill_2
XFILLER_11_220 VPWR VGND sg13g2_fill_1
XFILLER_12_754 VPWR VGND sg13g2_fill_2
XFILLER_7_257 VPWR VGND sg13g2_fill_2
XFILLER_4_964 VPWR VGND sg13g2_decap_8
XFILLER_19_386 VPWR VGND sg13g2_fill_1
X_5760_ _2417_ _2395_ net808 VPWR VGND sg13g2_nand2_1
X_5691_ mac2.total_sum\[8\] mac1.total_sum\[8\] _2354_ _2356_ VPWR VGND sg13g2_a21o_1
X_4711_ _1473_ _1435_ _1470_ VPWR VGND sg13g2_xnor2_1
X_4642_ _1406_ _1405_ _1402_ VPWR VGND sg13g2_nand2b_1
X_4573_ _1342_ _1336_ _1344_ VPWR VGND sg13g2_xor2_1
X_6312_ net1117 VGND VPWR net254 mac1.sum_lvl2_ff\[42\] clknet_leaf_54_clk sg13g2_dfrbpq_1
X_3524_ _0332_ _0331_ _0326_ _0335_ VPWR VGND sg13g2_a21o_1
X_6243_ net1126 VGND VPWR _0251_ DP_4.matrix\[7\] clknet_leaf_36_clk sg13g2_dfrbpq_1
X_3455_ net1041 net1039 net974 net972 _0268_ VPWR VGND sg13g2_and4_1
X_3386_ _2931_ _2969_ _2970_ VPWR VGND sg13g2_nor2_1
X_6174_ net1067 VGND VPWR _0099_ mac1.products_ff\[150\] clknet_leaf_6_clk sg13g2_dfrbpq_1
X_5125_ _1869_ _1868_ _0157_ VPWR VGND sg13g2_xor2_1
X_5056_ _1803_ _1801_ _1802_ VPWR VGND sg13g2_nand2b_1
X_4007_ _0797_ _0796_ _0798_ _0800_ VPWR VGND sg13g2_a21o_1
XFILLER_25_345 VPWR VGND sg13g2_fill_2
X_5958_ VGND VPWR net783 _2598_ _0200_ _2597_ sg13g2_a21oi_1
XFILLER_25_389 VPWR VGND sg13g2_fill_1
XFILLER_41_838 VPWR VGND sg13g2_fill_1
X_4909_ _1665_ _1656_ _1666_ VPWR VGND sg13g2_nor2b_1
X_5889_ net806 VPWR _2543_ VGND DP_4.matrix\[73\] _2476_ sg13g2_o21ai_1
XFILLER_1_956 VPWR VGND sg13g2_decap_8
XFILLER_49_938 VPWR VGND sg13g2_decap_8
Xhold30 mac2.products_ff\[15\] VPWR VGND net70 sg13g2_dlygate4sd3_1
XFILLER_0_466 VPWR VGND sg13g2_decap_8
XFILLER_0_488 VPWR VGND sg13g2_fill_1
Xhold41 mac1.products_ff\[7\] VPWR VGND net81 sg13g2_dlygate4sd3_1
Xhold63 mac1.products_ff\[2\] VPWR VGND net103 sg13g2_dlygate4sd3_1
Xhold74 mac2.products_ff\[75\] VPWR VGND net114 sg13g2_dlygate4sd3_1
Xhold52 mac2.sum_lvl2_ff\[52\] VPWR VGND net92 sg13g2_dlygate4sd3_1
Xhold96 mac1.sum_lvl2_ff\[42\] VPWR VGND net136 sg13g2_dlygate4sd3_1
Xhold85 mac1.sum_lvl2_ff\[49\] VPWR VGND net125 sg13g2_dlygate4sd3_1
XFILLER_16_334 VPWR VGND sg13g2_fill_1
X_3240_ _2793_ VPWR _2828_ VGND _2790_ _2794_ sg13g2_o21ai_1
X_3171_ _2758_ _2759_ _2753_ _2761_ VPWR VGND sg13g2_nand3_1
Xfanout1050 net302 net1050 VPWR VGND sg13g2_buf_8
Xfanout1072 net1087 net1072 VPWR VGND sg13g2_buf_8
Xfanout1061 net1068 net1061 VPWR VGND sg13g2_buf_8
Xfanout1083 net1085 net1083 VPWR VGND sg13g2_buf_8
Xfanout1094 net1095 net1094 VPWR VGND sg13g2_buf_8
XFILLER_19_194 VPWR VGND sg13g2_decap_4
X_5812_ VPWR _2468_ _2467_ VGND sg13g2_inv_1
X_5743_ DP_1.Q_range.out_data\[2\] DP_1.I_range.out_data\[2\] _2400_ VPWR VGND sg13g2_nor2b_2
XFILLER_34_186 VPWR VGND sg13g2_fill_1
X_5674_ mac2.total_sum\[5\] mac1.total_sum\[5\] _2343_ VPWR VGND sg13g2_xor2_1
X_4625_ _1386_ _1387_ _1389_ _1390_ VPWR VGND sg13g2_or3_1
Xhold511 mac1.sum_lvl3_ff\[4\] VPWR VGND net551 sg13g2_dlygate4sd3_1
Xhold500 mac1.sum_lvl3_ff\[12\] VPWR VGND net540 sg13g2_dlygate4sd3_1
X_4556_ _1326_ _1327_ _1328_ VPWR VGND sg13g2_and2_1
X_3507_ _0316_ _0315_ _0318_ VPWR VGND sg13g2_xor2_1
X_4487_ _1261_ net901 net1043 VPWR VGND sg13g2_nand2_1
X_3438_ _3015_ _3008_ _0071_ VPWR VGND sg13g2_xor2_1
X_6226_ net1127 VGND VPWR _0234_ DP_3.matrix\[42\] clknet_leaf_45_clk sg13g2_dfrbpq_2
X_6157_ net1112 VGND VPWR _0188_ DP_1.matrix\[72\] clknet_leaf_58_clk sg13g2_dfrbpq_1
X_3369_ _2952_ _2953_ _2954_ VPWR VGND sg13g2_nor2_1
X_5108_ _1854_ _1847_ _1852_ _1853_ VPWR VGND sg13g2_and3_1
X_6088_ net1063 VGND VPWR _0069_ mac1.products_ff\[0\] clknet_leaf_1_clk sg13g2_dfrbpq_1
X_5039_ _1787_ _1780_ _1785_ _1786_ VPWR VGND sg13g2_and3_1
XFILLER_39_993 VPWR VGND sg13g2_decap_8
XFILLER_14_805 VPWR VGND sg13g2_decap_4
XFILLER_22_882 VPWR VGND sg13g2_fill_1
XFILLER_31_75 VPWR VGND sg13g2_fill_1
Xoutput31 net31 uo_out[6] VPWR VGND sg13g2_buf_1
Xoutput20 net20 uio_out[3] VPWR VGND sg13g2_buf_1
XFILLER_0_263 VPWR VGND sg13g2_decap_8
XFILLER_17_643 VPWR VGND sg13g2_fill_2
XFILLER_29_492 VPWR VGND sg13g2_fill_2
XFILLER_32_635 VPWR VGND sg13g2_fill_1
XFILLER_9_820 VPWR VGND sg13g2_decap_8
XFILLER_9_875 VPWR VGND sg13g2_decap_8
XFILLER_8_352 VPWR VGND sg13g2_fill_2
X_4410_ _1186_ _1179_ _1185_ VPWR VGND sg13g2_xnor2_1
X_5390_ net462 VPWR _2122_ VGND _2116_ _2120_ sg13g2_o21ai_1
X_4341_ _1095_ _1116_ _1118_ _1119_ VPWR VGND sg13g2_or3_1
X_4272_ _1050_ _1049_ _1011_ _1052_ VPWR VGND sg13g2_a21o_1
X_6011_ VPWR _0251_ _2632_ VGND sg13g2_inv_1
X_3223_ _2788_ VPWR _2812_ VGND _2808_ _2810_ sg13g2_o21ai_1
X_3154_ _2744_ _2739_ _2742_ VPWR VGND sg13g2_xnor2_1
XFILLER_11_0 VPWR VGND sg13g2_fill_1
X_3085_ VGND VPWR _2678_ _2677_ _2657_ sg13g2_or2_1
XFILLER_27_418 VPWR VGND sg13g2_decap_4
XFILLER_36_930 VPWR VGND sg13g2_decap_4
XFILLER_22_123 VPWR VGND sg13g2_decap_4
X_3987_ _0780_ net1057 net963 net1005 net959 VPWR VGND sg13g2_a22oi_1
X_5726_ mac2.total_sum\[0\] mac1.total_sum\[0\] net25 VPWR VGND sg13g2_xor2_1
XFILLER_22_178 VPWR VGND sg13g2_fill_1
X_5657_ mac1.total_sum\[1\] mac2.total_sum\[1\] _2330_ VPWR VGND sg13g2_nor2_1
X_5588_ mac2.sum_lvl3_ff\[22\] net498 _2276_ VPWR VGND sg13g2_and2_1
X_4608_ _1369_ VPWR _1374_ VGND _1370_ _1372_ sg13g2_o21ai_1
Xhold330 DP_4.matrix\[74\] VPWR VGND net370 sg13g2_dlygate4sd3_1
Xhold341 mac1.sum_lvl3_ff\[2\] VPWR VGND net381 sg13g2_dlygate4sd3_1
Xhold352 mac1.sum_lvl2_ff\[8\] VPWR VGND net392 sg13g2_dlygate4sd3_1
X_4539_ _1311_ net897 DP_4.matrix\[44\] VPWR VGND sg13g2_nand2_1
Xhold396 _0222_ VPWR VGND net436 sg13g2_dlygate4sd3_1
Xhold385 DP_1.matrix\[2\] VPWR VGND net425 sg13g2_dlygate4sd3_1
Xhold374 DP_2.matrix\[4\] VPWR VGND net414 sg13g2_dlygate4sd3_1
Xhold363 _0050_ VPWR VGND net403 sg13g2_dlygate4sd3_1
Xfanout821 DP_4.matrix\[75\] net821 VPWR VGND sg13g2_buf_2
Xfanout832 net376 net832 VPWR VGND sg13g2_buf_1
Xfanout810 _2396_ net810 VPWR VGND sg13g2_buf_8
Xfanout843 DP_4.matrix\[38\] net843 VPWR VGND sg13g2_buf_1
X_6209_ net1122 VGND VPWR net388 DP_3.matrix\[3\] clknet_leaf_35_clk sg13g2_dfrbpq_2
Xfanout876 DP_3.matrix\[77\] net876 VPWR VGND sg13g2_buf_8
Xfanout854 net855 net854 VPWR VGND sg13g2_buf_8
Xfanout865 net866 net865 VPWR VGND sg13g2_buf_2
Xfanout887 net888 net887 VPWR VGND sg13g2_buf_1
Xfanout898 DP_3.matrix\[40\] net898 VPWR VGND sg13g2_buf_8
XFILLER_26_462 VPWR VGND sg13g2_fill_2
XFILLER_42_911 VPWR VGND sg13g2_fill_2
XFILLER_22_690 VPWR VGND sg13g2_fill_2
XFILLER_10_896 VPWR VGND sg13g2_decap_8
XFILLER_6_867 VPWR VGND sg13g2_decap_8
XFILLER_1_550 VPWR VGND sg13g2_fill_2
XFILLER_18_952 VPWR VGND sg13g2_decap_8
X_4890_ VPWR _1648_ _1647_ VGND sg13g2_inv_1
X_3910_ _0705_ _0698_ _0703_ _0704_ VPWR VGND sg13g2_and3_1
XFILLER_17_484 VPWR VGND sg13g2_fill_1
X_3841_ _0638_ net953 net1024 net955 net1022 VPWR VGND sg13g2_a22oi_1
XFILLER_33_988 VPWR VGND sg13g2_decap_8
XFILLER_20_638 VPWR VGND sg13g2_fill_1
X_3772_ _0576_ _0540_ _0574_ VPWR VGND sg13g2_xnor2_1
X_6560_ net1073 VGND VPWR net520 mac2.sum_lvl3_ff\[8\] clknet_leaf_14_clk sg13g2_dfrbpq_1
X_5511_ _2216_ mac2.sum_lvl2_ff\[20\] mac2.sum_lvl2_ff\[1\] VPWR VGND sg13g2_nand2_1
X_6491_ net1141 VGND VPWR net160 mac2.sum_lvl1_ff\[7\] clknet_leaf_41_clk sg13g2_dfrbpq_1
X_5442_ _2159_ VPWR _2162_ VGND _2158_ _2160_ sg13g2_o21ai_1
X_5373_ net390 _2106_ _0008_ VPWR VGND sg13g2_xor2_1
X_4324_ _1102_ _1064_ _1099_ VPWR VGND sg13g2_xnor2_1
X_4255_ _1035_ _1034_ _1031_ VPWR VGND sg13g2_nand2b_1
X_3206_ _2795_ _2790_ _2794_ VPWR VGND sg13g2_xnor2_1
X_4186_ _0971_ _0965_ _0973_ VPWR VGND sg13g2_xor2_1
XFILLER_41_1014 VPWR VGND sg13g2_decap_8
X_3137_ _2726_ _2727_ _2717_ _2728_ VPWR VGND sg13g2_nand3_1
X_3068_ _2658_ _2660_ _2661_ VPWR VGND sg13g2_nor2_1
XFILLER_24_933 VPWR VGND sg13g2_decap_8
X_5709_ _2360_ _2365_ _2371_ VPWR VGND sg13g2_nor2_1
XFILLER_3_804 VPWR VGND sg13g2_decap_8
XFILLER_12_99 VPWR VGND sg13g2_fill_2
Xhold171 mac1.sum_lvl1_ff\[41\] VPWR VGND net211 sg13g2_dlygate4sd3_1
Xhold160 mac1.products_ff\[14\] VPWR VGND net200 sg13g2_dlygate4sd3_1
Xhold182 mac2.sum_lvl1_ff\[3\] VPWR VGND net222 sg13g2_dlygate4sd3_1
Xhold193 mac2.products_ff\[150\] VPWR VGND net233 sg13g2_dlygate4sd3_1
XFILLER_37_52 VPWR VGND sg13g2_fill_2
XFILLER_15_911 VPWR VGND sg13g2_decap_8
XFILLER_15_988 VPWR VGND sg13g2_decap_8
XFILLER_30_936 VPWR VGND sg13g2_fill_1
X_4040_ _0831_ _0824_ _0832_ VPWR VGND sg13g2_xor2_1
X_5991_ _2619_ _2541_ _2545_ VPWR VGND sg13g2_xnor2_1
X_4942_ _1671_ _1673_ _1696_ _1698_ VPWR VGND sg13g2_or3_1
X_4873_ _1631_ _1623_ _1628_ VPWR VGND sg13g2_xnor2_1
XFILLER_21_936 VPWR VGND sg13g2_decap_8
X_3824_ _0621_ _0622_ _0623_ VPWR VGND sg13g2_nor2b_1
XFILLER_20_479 VPWR VGND sg13g2_fill_1
X_6543_ net1136 VGND VPWR net111 mac2.sum_lvl2_ff\[30\] clknet_leaf_43_clk sg13g2_dfrbpq_1
X_3755_ _0558_ _0537_ _0560_ VPWR VGND sg13g2_xor2_1
X_3686_ _0493_ _0485_ _0492_ VPWR VGND sg13g2_xnor2_1
X_6474_ net1079 VGND VPWR _0156_ mac2.products_ff\[142\] clknet_leaf_18_clk sg13g2_dfrbpq_1
X_5425_ VGND VPWR _2150_ net465 mac1.sum_lvl2_ff\[32\] sg13g2_or2_1
X_5356_ _2091_ VPWR _2094_ VGND _2076_ _2093_ sg13g2_o21ai_1
X_5287_ _2008_ VPWR _2028_ VGND _2006_ _2009_ sg13g2_o21ai_1
X_4307_ _1085_ _1057_ _1086_ VPWR VGND sg13g2_nor2b_1
X_4238_ _1015_ _1016_ _1018_ _1019_ VPWR VGND sg13g2_or3_1
X_4169_ _0955_ _0956_ _0957_ VPWR VGND sg13g2_and2_1
XFILLER_43_527 VPWR VGND sg13g2_fill_1
XFILLER_12_969 VPWR VGND sg13g2_decap_8
XFILLER_11_468 VPWR VGND sg13g2_fill_1
XFILLER_47_822 VPWR VGND sg13g2_fill_2
XFILLER_19_502 VPWR VGND sg13g2_fill_1
XFILLER_19_557 VPWR VGND sg13g2_fill_2
XFILLER_46_354 VPWR VGND sg13g2_fill_2
XFILLER_15_752 VPWR VGND sg13g2_fill_2
XFILLER_15_785 VPWR VGND sg13g2_fill_2
XFILLER_15_796 VPWR VGND sg13g2_decap_8
XFILLER_31_1013 VPWR VGND sg13g2_decap_8
XFILLER_7_940 VPWR VGND sg13g2_decap_8
XFILLER_11_980 VPWR VGND sg13g2_decap_8
X_3540_ _0348_ _0349_ _0350_ VPWR VGND sg13g2_nor2b_1
XFILLER_6_472 VPWR VGND sg13g2_fill_2
X_5210_ _1918_ _1953_ _1954_ VPWR VGND sg13g2_nor2_1
X_3471_ _0282_ _0283_ _0284_ VPWR VGND sg13g2_nor2b_2
X_6190_ net1091 VGND VPWR _0210_ DP_2.matrix\[42\] clknet_leaf_7_clk sg13g2_dfrbpq_1
X_5141_ _1886_ net820 net875 VPWR VGND sg13g2_nand2_1
X_5072_ _1819_ _1812_ _1817_ _1818_ VPWR VGND sg13g2_and3_1
X_4023_ _0815_ _0808_ _0814_ VPWR VGND sg13g2_xnor2_1
XFILLER_38_800 VPWR VGND sg13g2_fill_1
XFILLER_37_321 VPWR VGND sg13g2_fill_2
XFILLER_37_387 VPWR VGND sg13g2_fill_1
X_5974_ _2608_ VPWR _0222_ VGND net789 _2607_ sg13g2_o21ai_1
X_4925_ _1664_ _1657_ _1666_ _1681_ VPWR VGND sg13g2_a21o_1
X_4856_ VGND VPWR _1578_ _1580_ _1615_ _1614_ sg13g2_a21oi_1
X_3807_ VGND VPWR _0578_ _0601_ _0609_ _0603_ sg13g2_a21oi_1
X_6526_ net1143 VGND VPWR net257 mac2.sum_lvl2_ff\[10\] clknet_leaf_43_clk sg13g2_dfrbpq_1
X_4787_ _1508_ VPWR _1547_ VGND _1463_ _1509_ sg13g2_o21ai_1
X_3738_ _0512_ VPWR _0543_ VGND _0510_ _0513_ sg13g2_o21ai_1
X_3669_ _0476_ net1032 net966 VPWR VGND sg13g2_nand2_1
X_6457_ net1118 VGND VPWR _0127_ mac2.products_ff\[73\] clknet_leaf_46_clk sg13g2_dfrbpq_1
X_6388_ net1064 VGND VPWR net268 mac1.sum_lvl3_ff\[0\] clknet_leaf_3_clk sg13g2_dfrbpq_1
X_5408_ VPWR _2136_ _2135_ VGND sg13g2_inv_1
X_5339_ _2062_ _2054_ _2061_ _2078_ VPWR VGND sg13g2_a21o_1
Xclkbuf_leaf_67_clk clknet_4_0_0_clk clknet_leaf_67_clk VPWR VGND sg13g2_buf_8
XFILLER_44_825 VPWR VGND sg13g2_decap_8
XFILLER_29_877 VPWR VGND sg13g2_fill_1
XFILLER_29_888 VPWR VGND sg13g2_fill_1
XFILLER_44_836 VPWR VGND sg13g2_fill_1
XFILLER_28_376 VPWR VGND sg13g2_fill_1
XFILLER_31_519 VPWR VGND sg13g2_decap_8
XFILLER_7_247 VPWR VGND sg13g2_fill_1
XFILLER_12_799 VPWR VGND sg13g2_decap_8
XFILLER_4_943 VPWR VGND sg13g2_decap_8
Xclkbuf_leaf_58_clk clknet_4_10_0_clk clknet_leaf_58_clk VPWR VGND sg13g2_buf_8
Xclkbuf_4_11_0_clk clknet_0_clk clknet_4_11_0_clk VPWR VGND sg13g2_buf_8
XFILLER_35_836 VPWR VGND sg13g2_fill_2
X_5690_ _2354_ _2355_ net17 VPWR VGND sg13g2_nor2b_2
X_4710_ _1435_ _1470_ _1472_ VPWR VGND sg13g2_and2_1
X_4641_ _1404_ _1381_ _1405_ VPWR VGND sg13g2_xor2_1
X_4572_ _1343_ _1336_ _1342_ VPWR VGND sg13g2_nand2_1
X_6311_ net1071 VGND VPWR net157 mac1.sum_lvl2_ff\[41\] clknet_leaf_66_clk sg13g2_dfrbpq_1
X_3523_ _0331_ _0332_ _0326_ _0334_ VPWR VGND sg13g2_nand3_1
X_6242_ net1128 VGND VPWR net358 DP_4.matrix\[6\] clknet_leaf_36_clk sg13g2_dfrbpq_1
X_3454_ _3031_ net1039 net972 VPWR VGND sg13g2_nand2_1
XFILLER_41_0 VPWR VGND sg13g2_fill_1
X_6173_ net1094 VGND VPWR net407 DP_2.matrix\[3\] clknet_leaf_61_clk sg13g2_dfrbpq_1
X_3385_ _2969_ _2960_ _2968_ VPWR VGND sg13g2_xnor2_1
X_5124_ _1870_ _1868_ _1869_ VPWR VGND sg13g2_nand2_1
X_5055_ _1802_ net889 net814 VPWR VGND sg13g2_nand2_1
Xclkbuf_leaf_49_clk clknet_4_11_0_clk clknet_leaf_49_clk VPWR VGND sg13g2_buf_8
X_4006_ _0797_ _0798_ _0796_ _0799_ VPWR VGND sg13g2_nand3_1
X_5957_ _2598_ _2460_ _2462_ VPWR VGND sg13g2_xnor2_1
X_4908_ _1665_ _1657_ _1664_ VPWR VGND sg13g2_xnor2_1
X_5888_ _2542_ net847 net795 VPWR VGND sg13g2_nand2b_1
X_4839_ _1572_ VPWR _1598_ VGND _1566_ _1573_ sg13g2_o21ai_1
XFILLER_5_718 VPWR VGND sg13g2_fill_2
X_6509_ net1136 VGND VPWR net252 mac2.sum_lvl1_ff\[45\] clknet_leaf_50_clk sg13g2_dfrbpq_1
XFILLER_1_935 VPWR VGND sg13g2_decap_8
XFILLER_49_917 VPWR VGND sg13g2_decap_8
XFILLER_0_445 VPWR VGND sg13g2_fill_2
Xhold31 mac1.products_ff\[12\] VPWR VGND net71 sg13g2_dlygate4sd3_1
Xhold20 mac2.products_ff\[142\] VPWR VGND net60 sg13g2_dlygate4sd3_1
Xhold64 mac1.sum_lvl2_ff\[50\] VPWR VGND net104 sg13g2_dlygate4sd3_1
Xhold42 mac2.sum_lvl1_ff\[6\] VPWR VGND net82 sg13g2_dlygate4sd3_1
Xhold53 mac2.sum_lvl1_ff\[79\] VPWR VGND net93 sg13g2_dlygate4sd3_1
Xhold97 mac2.sum_lvl1_ff\[15\] VPWR VGND net137 sg13g2_dlygate4sd3_1
Xhold86 mac1.products_ff\[139\] VPWR VGND net126 sg13g2_dlygate4sd3_1
Xhold75 mac2.sum_lvl2_ff\[43\] VPWR VGND net115 sg13g2_dlygate4sd3_1
XFILLER_44_600 VPWR VGND sg13g2_fill_1
XFILLER_17_825 VPWR VGND sg13g2_fill_2
XFILLER_17_869 VPWR VGND sg13g2_decap_8
XFILLER_40_861 VPWR VGND sg13g2_decap_8
Xfanout1040 net336 net1040 VPWR VGND sg13g2_buf_8
XFILLER_6_1028 VPWR VGND sg13g2_fill_1
X_3170_ _2760_ _2753_ _2758_ _2759_ VPWR VGND sg13g2_and3_1
Xfanout1051 net386 net1051 VPWR VGND sg13g2_buf_8
Xfanout1062 net1064 net1062 VPWR VGND sg13g2_buf_8
Xfanout1073 net1074 net1073 VPWR VGND sg13g2_buf_8
Xfanout1095 net1108 net1095 VPWR VGND sg13g2_buf_8
Xfanout1084 net1085 net1084 VPWR VGND sg13g2_buf_8
X_5811_ _2464_ _2466_ _2467_ VPWR VGND sg13g2_nor2_1
XFILLER_35_699 VPWR VGND sg13g2_fill_2
X_5742_ _2399_ net418 net801 VPWR VGND sg13g2_nand2_1
X_5673_ mac1.total_sum\[5\] mac2.total_sum\[5\] _2342_ VPWR VGND sg13g2_nor2_1
X_4624_ _1389_ net916 net868 net918 net865 VPWR VGND sg13g2_a22oi_1
Xhold501 _2200_ VPWR VGND net541 sg13g2_dlygate4sd3_1
X_4555_ _1299_ _1301_ _1325_ _1327_ VPWR VGND sg13g2_or3_1
X_3506_ _0317_ _0315_ _0316_ VPWR VGND sg13g2_nand2b_1
Xhold512 mac2.sum_lvl2_ff\[14\] VPWR VGND net552 sg13g2_dlygate4sd3_1
X_4486_ VGND VPWR _1260_ _1233_ _1231_ sg13g2_or2_1
X_3437_ _3016_ _3008_ _3015_ VPWR VGND sg13g2_nand2_1
X_6225_ net1097 VGND VPWR net181 mac1.sum_lvl1_ff\[15\] clknet_leaf_12_clk sg13g2_dfrbpq_1
X_6156_ net1111 VGND VPWR _0103_ mac1.products_ff\[144\] clknet_leaf_54_clk sg13g2_dfrbpq_1
X_3368_ VGND VPWR _2922_ _2953_ _2920_ _2900_ sg13g2_a21oi_2
X_5107_ _1848_ VPWR _1853_ VGND _1849_ _1851_ sg13g2_o21ai_1
X_3299_ _2886_ _2876_ _2885_ VPWR VGND sg13g2_nand2b_1
Xheichips25_template_33 VPWR VGND uio_oe[0] sg13g2_tiehi
XFILLER_39_972 VPWR VGND sg13g2_decap_8
X_6087_ net1080 VGND VPWR DP_3.Q_range.data_plus_4\[6\] DP_3.Q_range.out_data\[5\]
+ clknet_leaf_22_clk sg13g2_dfrbpq_1
X_5038_ _1781_ VPWR _1786_ VGND _1782_ _1784_ sg13g2_o21ai_1
XFILLER_41_625 VPWR VGND sg13g2_fill_1
XFILLER_40_102 VPWR VGND sg13g2_fill_1
XFILLER_40_146 VPWR VGND sg13g2_fill_1
Xoutput21 net21 uio_out[4] VPWR VGND sg13g2_buf_1
Xoutput32 net32 uo_out[7] VPWR VGND sg13g2_buf_1
XFILLER_29_482 VPWR VGND sg13g2_fill_1
XFILLER_16_121 VPWR VGND sg13g2_fill_2
XFILLER_45_986 VPWR VGND sg13g2_decap_8
XFILLER_44_496 VPWR VGND sg13g2_fill_2
XFILLER_9_854 VPWR VGND sg13g2_decap_8
X_4340_ VGND VPWR _1114_ _1115_ _1118_ _1096_ sg13g2_a21oi_1
X_4271_ _1049_ _1050_ _1011_ _1051_ VPWR VGND sg13g2_nand3_1
X_6010_ _2632_ _2573_ _2631_ net791 net853 VPWR VGND sg13g2_a22oi_1
X_3222_ _2788_ _2808_ _2810_ _2811_ VPWR VGND sg13g2_or3_1
X_3153_ _2743_ _2739_ _2742_ VPWR VGND sg13g2_nand2_1
XFILLER_48_780 VPWR VGND sg13g2_fill_1
X_3084_ _2675_ _2674_ _2677_ VPWR VGND sg13g2_xor2_1
XFILLER_22_102 VPWR VGND sg13g2_decap_8
XFILLER_10_308 VPWR VGND sg13g2_fill_2
X_3986_ net959 net1005 net963 _0779_ VPWR VGND net1057 sg13g2_nand4_1
X_5725_ net24 _2382_ _2383_ VPWR VGND sg13g2_xnor2_1
X_5656_ _2329_ mac1.total_sum\[1\] mac2.total_sum\[1\] VPWR VGND sg13g2_nand2_1
XFILLER_11_1022 VPWR VGND sg13g2_decap_8
X_4607_ _1369_ _1370_ _1372_ _1373_ VPWR VGND sg13g2_nor3_1
Xhold320 _2286_ VPWR VGND net360 sg13g2_dlygate4sd3_1
X_5587_ _2272_ VPWR _2275_ VGND _2271_ _2273_ sg13g2_o21ai_1
Xhold331 DP_4.matrix\[4\] VPWR VGND net371 sg13g2_dlygate4sd3_1
Xhold353 _2127_ VPWR VGND net393 sg13g2_dlygate4sd3_1
Xhold342 _2164_ VPWR VGND net382 sg13g2_dlygate4sd3_1
X_4538_ _1289_ VPWR _1310_ VGND _1286_ _1290_ sg13g2_o21ai_1
Xfanout800 _2401_ net800 VPWR VGND sg13g2_buf_8
Xhold364 DP_2.matrix\[76\] VPWR VGND net404 sg13g2_dlygate4sd3_1
Xhold386 DP_2.matrix\[78\] VPWR VGND net426 sg13g2_dlygate4sd3_1
Xhold375 DP_2.matrix\[42\] VPWR VGND net415 sg13g2_dlygate4sd3_1
X_4469_ VGND VPWR _1207_ _1209_ _1244_ _1243_ sg13g2_a21oi_1
Xfanout811 net813 net811 VPWR VGND sg13g2_buf_8
Xfanout822 net823 net822 VPWR VGND sg13g2_buf_8
X_6208_ net1122 VGND VPWR net436 DP_3.matrix\[2\] clknet_leaf_35_clk sg13g2_dfrbpq_2
Xfanout833 net334 net833 VPWR VGND sg13g2_buf_8
Xhold397 mac2.sum_lvl3_ff\[35\] VPWR VGND net437 sg13g2_dlygate4sd3_1
Xfanout855 net357 net855 VPWR VGND sg13g2_buf_8
Xfanout866 net474 net866 VPWR VGND sg13g2_buf_8
Xfanout844 net846 net844 VPWR VGND sg13g2_buf_2
Xfanout877 net878 net877 VPWR VGND sg13g2_buf_2
X_6139_ net1094 VGND VPWR net397 DP_1.matrix\[4\] clknet_leaf_61_clk sg13g2_dfrbpq_1
XFILLER_19_909 VPWR VGND sg13g2_decap_8
Xfanout899 net337 net899 VPWR VGND sg13g2_buf_8
Xfanout888 net310 net888 VPWR VGND sg13g2_buf_2
XFILLER_26_43 VPWR VGND sg13g2_fill_1
XFILLER_27_986 VPWR VGND sg13g2_decap_8
XFILLER_14_658 VPWR VGND sg13g2_fill_1
XFILLER_10_875 VPWR VGND sg13g2_decap_8
XFILLER_6_846 VPWR VGND sg13g2_decap_8
XFILLER_18_931 VPWR VGND sg13g2_decap_8
XFILLER_45_783 VPWR VGND sg13g2_fill_1
XFILLER_17_474 VPWR VGND sg13g2_decap_4
XFILLER_45_794 VPWR VGND sg13g2_fill_1
X_3840_ _0077_ _0624_ _0636_ VPWR VGND sg13g2_xnor2_1