*SPEF "ieee 1481-1999"
*DESIGN "heichips25_template"
*DATE "12:24:37 Thursday August 14, 2025"
*VENDOR "The OpenROAD Project"
*PROGRAM "OpenROAD"
*VERSION "341650e72dad0dc8571822ff8c5d9c5e365327f7"
*DESIGN_FLOW "NAME_SCOPE LOCAL" "PIN_CAP NONE"
*DIVIDER /
*DELIMITER :
*BUS_DELIMITER []
*T_UNIT 1 NS
*C_UNIT 1 PF
*R_UNIT 1 OHM
*L_UNIT 1 HENRY

*NAME_MAP
*3 clk
*4 ena
*5 rst_n
*6 ui_in[0]
*7 ui_in[1]
*8 ui_in[2]
*9 ui_in[3]
*10 ui_in[4]
*11 ui_in[5]
*12 ui_in[6]
*13 ui_in[7]
*14 uio_in[0]
*15 uio_in[1]
*16 uio_in[2]
*17 uio_in[3]
*18 uio_in[4]
*19 uio_in[5]
*20 uio_in[6]
*21 uio_in[7]
*22 net17
*23 net18
*24 net19
*25 net20
*26 net21
*27 net22
*28 net23
*29 net24
*30 net5
*31 net6
*32 net7
*33 net8
*34 net9
*35 net10
*36 net11
*37 net12
*38 uo_out[0]
*39 uo_out[1]
*40 uo_out[2]
*41 uo_out[3]
*42 net13
*43 net14
*44 net15
*45 net16
*46 DP_1\.matrix\[0\]
*47 DP_1\.matrix\[112\]
*48 DP_1\.matrix\[113\]
*49 DP_1\.matrix\[128\]
*50 DP_1\.matrix\[129\]
*51 DP_1\.matrix\[16\]
*52 DP_1\.matrix\[17\]
*53 DP_1\.matrix\[1\]
*54 DP_1\.matrix\[32\]
*55 DP_1\.matrix\[33\]
*56 DP_1\.matrix\[48\]
*57 DP_1\.matrix\[49\]
*58 DP_1\.matrix\[64\]
*59 DP_1\.matrix\[65\]
*60 DP_1\.matrix\[80\]
*61 DP_1\.matrix\[81\]
*62 DP_1\.matrix\[96\]
*63 DP_1\.matrix\[97\]
*64 DP_2\.matrix\[0\]
*65 DP_2\.matrix\[112\]
*66 DP_2\.matrix\[113\]
*67 DP_2\.matrix\[128\]
*68 DP_2\.matrix\[129\]
*69 DP_2\.matrix\[16\]
*70 DP_2\.matrix\[17\]
*71 DP_2\.matrix\[1\]
*72 DP_2\.matrix\[32\]
*73 DP_2\.matrix\[33\]
*74 DP_2\.matrix\[48\]
*75 DP_2\.matrix\[49\]
*76 DP_2\.matrix\[64\]
*77 DP_2\.matrix\[65\]
*78 DP_2\.matrix\[80\]
*79 DP_2\.matrix\[81\]
*80 DP_2\.matrix\[96\]
*81 DP_2\.matrix\[97\]
*82 DP_3\.matrix\[0\]
*83 DP_3\.matrix\[112\]
*84 DP_3\.matrix\[113\]
*85 DP_3\.matrix\[128\]
*86 DP_3\.matrix\[129\]
*87 DP_3\.matrix\[16\]
*88 DP_3\.matrix\[17\]
*89 DP_3\.matrix\[1\]
*90 DP_3\.matrix\[32\]
*91 DP_3\.matrix\[33\]
*92 DP_3\.matrix\[48\]
*93 DP_3\.matrix\[49\]
*94 DP_3\.matrix\[64\]
*95 DP_3\.matrix\[65\]
*96 DP_3\.matrix\[80\]
*97 DP_3\.matrix\[81\]
*98 DP_3\.matrix\[96\]
*99 DP_3\.matrix\[97\]
*100 DP_4\.matrix\[0\]
*101 DP_4\.matrix\[112\]
*102 DP_4\.matrix\[113\]
*103 DP_4\.matrix\[128\]
*104 DP_4\.matrix\[129\]
*105 DP_4\.matrix\[16\]
*106 DP_4\.matrix\[17\]
*107 DP_4\.matrix\[1\]
*108 DP_4\.matrix\[32\]
*109 DP_4\.matrix\[33\]
*110 DP_4\.matrix\[48\]
*111 DP_4\.matrix\[49\]
*112 DP_4\.matrix\[64\]
*113 DP_4\.matrix\[65\]
*114 DP_4\.matrix\[80\]
*115 DP_4\.matrix\[81\]
*116 DP_4\.matrix\[96\]
*117 DP_4\.matrix\[97\]
*118 _000_
*119 _001_
*120 _002_
*121 _003_
*122 _004_
*123 _005_
*124 _006_
*125 _007_
*126 _008_
*127 _009_
*128 _010_
*129 _011_
*130 _012_
*131 _013_
*132 _014_
*133 _015_
*134 _016_
*135 _017_
*136 _018_
*137 _019_
*138 _020_
*139 _021_
*140 _022_
*141 _023_
*142 _024_
*143 _025_
*144 _026_
*145 _027_
*146 _028_
*147 _029_
*148 _030_
*149 _031_
*150 _032_
*151 _033_
*152 _034_
*153 _035_
*154 _036_
*155 _037_
*156 _038_
*157 _039_
*158 _040_
*159 _041_
*160 _042_
*161 _043_
*162 _044_
*163 _045_
*164 _046_
*165 _047_
*166 _048_
*167 _049_
*168 _050_
*169 _051_
*170 _052_
*171 _053_
*172 _054_
*173 _055_
*174 _056_
*175 _057_
*176 _058_
*177 _059_
*178 _060_
*179 _061_
*180 _062_
*181 _063_
*182 _064_
*183 _065_
*184 _066_
*185 _067_
*186 _068_
*187 _069_
*188 _070_
*189 _071_
*190 _072_
*191 _073_
*192 _074_
*193 _075_
*194 _076_
*195 _077_
*196 _078_
*197 _079_
*198 _080_
*199 _081_
*200 _082_
*201 _083_
*202 _084_
*203 _085_
*204 _086_
*205 _087_
*206 _088_
*207 _089_
*208 _090_
*209 _091_
*210 _092_
*211 _093_
*212 _094_
*213 _095_
*214 _096_
*215 _097_
*216 _098_
*217 _099_
*218 _100_
*219 _101_
*220 _102_
*221 _103_
*222 _104_
*223 _105_
*224 _106_
*225 _107_
*226 _108_
*227 _109_
*228 _110_
*229 _111_
*230 _112_
*231 _113_
*232 _114_
*233 _115_
*234 _116_
*235 _117_
*236 _118_
*237 _119_
*238 _120_
*239 _121_
*240 _122_
*241 _123_
*242 _124_
*243 _125_
*244 _126_
*245 _127_
*246 _128_
*247 _129_
*248 _130_
*249 _131_
*250 _132_
*251 _133_
*252 _134_
*253 _135_
*254 _136_
*255 _137_
*256 _138_
*257 _139_
*258 _140_
*259 _141_
*260 _142_
*261 _143_
*262 _144_
*263 _145_
*264 _146_
*265 _147_
*266 _148_
*267 _149_
*268 _150_
*269 _151_
*270 _152_
*271 _153_
*272 _154_
*273 _155_
*274 _156_
*275 _157_
*276 _158_
*277 _159_
*278 _160_
*279 _161_
*280 _162_
*281 _163_
*282 _164_
*283 _165_
*284 _166_
*285 _167_
*286 _168_
*287 _169_
*288 _170_
*289 _171_
*290 _172_
*291 _173_
*292 _174_
*293 _175_
*294 _176_
*295 _177_
*296 _178_
*297 _179_
*298 _180_
*299 _181_
*300 _182_
*301 _183_
*302 _184_
*303 _185_
*304 _186_
*305 _187_
*306 _188_
*307 _189_
*308 _190_
*309 _191_
*310 _192_
*311 _193_
*312 _194_
*313 _195_
*314 _196_
*315 _197_
*316 _198_
*317 _199_
*318 _200_
*319 _201_
*320 _202_
*321 _203_
*322 _204_
*323 _205_
*324 _206_
*325 _207_
*326 _208_
*327 _209_
*328 _210_
*329 _211_
*330 _212_
*331 _213_
*332 _214_
*333 _215_
*334 _216_
*335 _217_
*336 _218_
*337 _219_
*338 _220_
*339 _221_
*340 clknet_0_clk
*341 clknet_4_0_0_clk
*342 clknet_4_10_0_clk
*343 clknet_4_11_0_clk
*344 clknet_4_12_0_clk
*345 clknet_4_13_0_clk
*346 clknet_4_14_0_clk
*347 clknet_4_15_0_clk
*348 clknet_4_1_0_clk
*349 clknet_4_2_0_clk
*350 clknet_4_3_0_clk
*351 clknet_4_4_0_clk
*352 clknet_4_5_0_clk
*353 clknet_4_6_0_clk
*354 clknet_4_7_0_clk
*355 clknet_4_8_0_clk
*356 clknet_4_9_0_clk
*357 clknet_5_0__leaf_clk
*358 clknet_5_10__leaf_clk
*359 clknet_5_11__leaf_clk
*360 clknet_5_12__leaf_clk
*361 clknet_5_13__leaf_clk
*362 clknet_5_14__leaf_clk
*363 clknet_5_15__leaf_clk
*364 clknet_5_16__leaf_clk
*365 clknet_5_17__leaf_clk
*366 clknet_5_18__leaf_clk
*367 clknet_5_19__leaf_clk
*368 clknet_5_1__leaf_clk
*369 clknet_5_20__leaf_clk
*370 clknet_5_21__leaf_clk
*371 clknet_5_22__leaf_clk
*372 clknet_5_23__leaf_clk
*373 clknet_5_24__leaf_clk
*374 clknet_5_25__leaf_clk
*375 clknet_5_26__leaf_clk
*376 clknet_5_27__leaf_clk
*377 clknet_5_28__leaf_clk
*378 clknet_5_29__leaf_clk
*379 clknet_5_2__leaf_clk
*380 clknet_5_30__leaf_clk
*381 clknet_5_31__leaf_clk
*382 clknet_5_3__leaf_clk
*383 clknet_5_4__leaf_clk
*384 clknet_5_5__leaf_clk
*385 clknet_5_6__leaf_clk
*386 clknet_5_7__leaf_clk
*387 clknet_5_8__leaf_clk
*388 clknet_5_9__leaf_clk
*389 mac1\.products_ff\[0\]
*390 mac1\.products_ff\[112\]
*391 mac1\.products_ff\[113\]
*392 mac1\.products_ff\[128\]
*393 mac1\.products_ff\[129\]
*394 mac1\.products_ff\[16\]
*395 mac1\.products_ff\[17\]
*396 mac1\.products_ff\[1\]
*397 mac1\.products_ff\[32\]
*398 mac1\.products_ff\[33\]
*399 mac1\.products_ff\[48\]
*400 mac1\.products_ff\[49\]
*401 mac1\.products_ff\[64\]
*402 mac1\.products_ff\[65\]
*403 mac1\.products_ff\[80\]
*404 mac1\.products_ff\[81\]
*405 mac1\.products_ff\[96\]
*406 mac1\.products_ff\[97\]
*407 mac1\.sum_lvl1_ff\[0\]
*408 mac1\.sum_lvl1_ff\[16\]
*409 mac1\.sum_lvl1_ff\[17\]
*410 mac1\.sum_lvl1_ff\[1\]
*411 mac1\.sum_lvl1_ff\[24\]
*412 mac1\.sum_lvl1_ff\[25\]
*413 mac1\.sum_lvl1_ff\[32\]
*414 mac1\.sum_lvl1_ff\[33\]
*415 mac1\.sum_lvl1_ff\[8\]
*416 mac1\.sum_lvl1_ff\[9\]
*417 mac1\.sum_lvl2_ff\[0\]
*418 mac1\.sum_lvl2_ff\[1\]
*419 mac1\.sum_lvl2_ff\[4\]
*420 mac1\.sum_lvl2_ff\[5\]
*421 mac1\.sum_lvl2_ff\[8\]
*422 mac1\.sum_lvl2_ff\[9\]
*423 mac1\.sum_lvl3_ff\[0\]
*424 mac1\.sum_lvl3_ff\[1\]
*425 mac1\.sum_lvl3_ff\[2\]
*426 mac1\.sum_lvl3_ff\[3\]
*427 mac1\.total_sum\[0\]
*428 mac1\.total_sum\[1\]
*429 mac1\.total_sum\[2\]
*430 mac2\.products_ff\[0\]
*431 mac2\.products_ff\[112\]
*432 mac2\.products_ff\[113\]
*433 mac2\.products_ff\[128\]
*434 mac2\.products_ff\[129\]
*435 mac2\.products_ff\[16\]
*436 mac2\.products_ff\[17\]
*437 mac2\.products_ff\[1\]
*438 mac2\.products_ff\[32\]
*439 mac2\.products_ff\[33\]
*440 mac2\.products_ff\[48\]
*441 mac2\.products_ff\[49\]
*442 mac2\.products_ff\[64\]
*443 mac2\.products_ff\[65\]
*444 mac2\.products_ff\[80\]
*445 mac2\.products_ff\[81\]
*446 mac2\.products_ff\[96\]
*447 mac2\.products_ff\[97\]
*448 mac2\.sum_lvl1_ff\[0\]
*449 mac2\.sum_lvl1_ff\[16\]
*450 mac2\.sum_lvl1_ff\[17\]
*451 mac2\.sum_lvl1_ff\[1\]
*452 mac2\.sum_lvl1_ff\[24\]
*453 mac2\.sum_lvl1_ff\[25\]
*454 mac2\.sum_lvl1_ff\[32\]
*455 mac2\.sum_lvl1_ff\[33\]
*456 mac2\.sum_lvl1_ff\[8\]
*457 mac2\.sum_lvl1_ff\[9\]
*458 mac2\.sum_lvl2_ff\[0\]
*459 mac2\.sum_lvl2_ff\[1\]
*460 mac2\.sum_lvl2_ff\[4\]
*461 mac2\.sum_lvl2_ff\[5\]
*462 mac2\.sum_lvl2_ff\[8\]
*463 mac2\.sum_lvl2_ff\[9\]
*464 mac2\.sum_lvl3_ff\[0\]
*465 mac2\.sum_lvl3_ff\[1\]
*466 mac2\.sum_lvl3_ff\[2\]
*467 mac2\.sum_lvl3_ff\[3\]
*468 mac2\.total_sum\[0\]
*469 mac2\.total_sum\[1\]
*470 mac2\.total_sum\[2\]
*471 net1
*472 net100
*473 net101
*474 net102
*475 net103
*476 net104
*477 net105
*478 net106
*479 net107
*480 net108
*481 net109
*482 net110
*483 net111
*484 net112
*485 net113
*486 net114
*487 net115
*488 net116
*489 net117
*490 net118
*491 net119
*492 net120
*493 net121
*494 net122
*495 net123
*496 net124
*497 net125
*498 net126
*499 net127
*500 net128
*501 net129
*502 net130
*503 net131
*504 net132
*505 net133
*506 net134
*507 net135
*508 net136
*509 net137
*510 net138
*511 net139
*512 net140
*513 net141
*514 net142
*515 net143
*516 net144
*517 net145
*518 net146
*519 net147
*520 net148
*521 net149
*522 net150
*523 net151
*524 net152
*525 net153
*526 net154
*527 net155
*528 net156
*529 net157
*530 net158
*531 net159
*532 net160
*533 net161
*534 net162
*535 net163
*536 net164
*537 net165
*538 net166
*539 net167
*540 net168
*541 net169
*542 net170
*543 net171
*544 net172
*545 net173
*546 net174
*547 net175
*548 net176
*549 net177
*550 net178
*551 net179
*552 net180
*553 net181
*554 net182
*555 net183
*556 net184
*557 net185
*558 net186
*559 net187
*560 net188
*561 net189
*562 net190
*563 net191
*564 net192
*565 net193
*566 net194
*567 net195
*568 net196
*569 net197
*570 net198
*571 net199
*572 net2
*573 net200
*574 net201
*575 net202
*576 net203
*577 net204
*578 net205
*579 net206
*580 net207
*581 net208
*582 net25
*583 net26
*584 net27
*585 net28
*586 net29
*587 net3
*588 net30
*589 net31
*590 net32
*591 net33
*592 net34
*593 net35
*594 net36
*595 net37
*596 net38
*597 net39
*598 net4
*599 net40
*600 net41
*601 net42
*602 net43
*603 net44
*604 net45
*605 net46
*606 net47
*607 net48
*608 net49
*609 net50
*610 net51
*611 net52
*612 net53
*613 net54
*614 net55
*615 net56
*616 net57
*617 net58
*618 net59
*619 net60
*620 net61
*621 net62
*622 net63
*623 net64
*624 net65
*625 net66
*626 net67
*627 net68
*628 net69
*629 net70
*630 net71
*631 net72
*632 net73
*633 net74
*634 net75
*635 net76
*636 net77
*637 net78
*638 net79
*639 net80
*640 net81
*641 net82
*642 net83
*643 net84
*644 net85
*645 net86
*646 net87
*647 net88
*648 net89
*649 net90
*650 net91
*651 net92
*652 net93
*653 net94
*654 net95
*655 net96
*656 net97
*657 net98
*658 net99
*659 FILLER_0_0
*660 FILLER_0_1001
*661 FILLER_0_1008
*662 FILLER_0_1015
*663 FILLER_0_1022
*664 FILLER_0_105
*665 FILLER_0_112
*666 FILLER_0_119
*667 FILLER_0_126
*668 FILLER_0_133
*669 FILLER_0_14
*670 FILLER_0_140
*671 FILLER_0_147
*672 FILLER_0_154
*673 FILLER_0_161
*674 FILLER_0_168
*675 FILLER_0_175
*676 FILLER_0_182
*677 FILLER_0_189
*678 FILLER_0_196
*679 FILLER_0_203
*680 FILLER_0_21
*681 FILLER_0_210
*682 FILLER_0_217
*683 FILLER_0_224
*684 FILLER_0_231
*685 FILLER_0_238
*686 FILLER_0_245
*687 FILLER_0_252
*688 FILLER_0_259
*689 FILLER_0_266
*690 FILLER_0_273
*691 FILLER_0_28
*692 FILLER_0_280
*693 FILLER_0_287
*694 FILLER_0_294
*695 FILLER_0_301
*696 FILLER_0_308
*697 FILLER_0_315
*698 FILLER_0_322
*699 FILLER_0_329
*700 FILLER_0_336
*701 FILLER_0_343
*702 FILLER_0_35
*703 FILLER_0_350
*704 FILLER_0_357
*705 FILLER_0_364
*706 FILLER_0_371
*707 FILLER_0_378
*708 FILLER_0_385
*709 FILLER_0_392
*710 FILLER_0_399
*711 FILLER_0_406
*712 FILLER_0_413
*713 FILLER_0_42
*714 FILLER_0_420
*715 FILLER_0_427
*716 FILLER_0_434
*717 FILLER_0_441
*718 FILLER_0_448
*719 FILLER_0_455
*720 FILLER_0_462
*721 FILLER_0_469
*722 FILLER_0_476
*723 FILLER_0_483
*724 FILLER_0_49
*725 FILLER_0_490
*726 FILLER_0_497
*727 FILLER_0_504
*728 FILLER_0_511
*729 FILLER_0_518
*730 FILLER_0_525
*731 FILLER_0_532
*732 FILLER_0_539
*733 FILLER_0_546
*734 FILLER_0_553
*735 FILLER_0_56
*736 FILLER_0_560
*737 FILLER_0_567
*738 FILLER_0_574
*739 FILLER_0_581
*740 FILLER_0_588
*741 FILLER_0_595
*742 FILLER_0_602
*743 FILLER_0_609
*744 FILLER_0_616
*745 FILLER_0_623
*746 FILLER_0_63
*747 FILLER_0_630
*748 FILLER_0_637
*749 FILLER_0_644
*750 FILLER_0_651
*751 FILLER_0_658
*752 FILLER_0_665
*753 FILLER_0_672
*754 FILLER_0_679
*755 FILLER_0_686
*756 FILLER_0_693
*757 FILLER_0_7
*758 FILLER_0_70
*759 FILLER_0_700
*760 FILLER_0_707
*761 FILLER_0_714
*762 FILLER_0_721
*763 FILLER_0_728
*764 FILLER_0_735
*765 FILLER_0_742
*766 FILLER_0_749
*767 FILLER_0_756
*768 FILLER_0_763
*769 FILLER_0_77
*770 FILLER_0_770
*771 FILLER_0_777
*772 FILLER_0_784
*773 FILLER_0_791
*774 FILLER_0_798
*775 FILLER_0_805
*776 FILLER_0_812
*777 FILLER_0_819
*778 FILLER_0_826
*779 FILLER_0_833
*780 FILLER_0_84
*781 FILLER_0_840
*782 FILLER_0_847
*783 FILLER_0_854
*784 FILLER_0_861
*785 FILLER_0_868
*786 FILLER_0_875
*787 FILLER_0_882
*788 FILLER_0_889
*789 FILLER_0_896
*790 FILLER_0_903
*791 FILLER_0_91
*792 FILLER_0_910
*793 FILLER_0_917
*794 FILLER_0_924
*795 FILLER_0_931
*796 FILLER_0_938
*797 FILLER_0_945
*798 FILLER_0_952
*799 FILLER_0_959
*800 FILLER_0_966
*801 FILLER_0_973
*802 FILLER_0_98
*803 FILLER_0_980
*804 FILLER_0_987
*805 FILLER_0_994
*806 FILLER_10_100
*807 FILLER_10_1000
*808 FILLER_10_1007
*809 FILLER_10_1014
*810 FILLER_10_1021
*811 FILLER_10_1028
*812 FILLER_10_107
*813 FILLER_10_11
*814 FILLER_10_114
*815 FILLER_10_121
*816 FILLER_10_128
*817 FILLER_10_135
*818 FILLER_10_142
*819 FILLER_10_149
*820 FILLER_10_156
*821 FILLER_10_163
*822 FILLER_10_18
*823 FILLER_10_194
*824 FILLER_10_201
*825 FILLER_10_208
*826 FILLER_10_215
*827 FILLER_10_22
*828 FILLER_10_222
*829 FILLER_10_229
*830 FILLER_10_236
*831 FILLER_10_250
*832 FILLER_10_257
*833 FILLER_10_261
*834 FILLER_10_267
*835 FILLER_10_299
*836 FILLER_10_306
*837 FILLER_10_313
*838 FILLER_10_320
*839 FILLER_10_322
*840 FILLER_10_332
*841 FILLER_10_355
*842 FILLER_10_362
*843 FILLER_10_369
*844 FILLER_10_376
*845 FILLER_10_383
*846 FILLER_10_397
*847 FILLER_10_4
*848 FILLER_10_404
*849 FILLER_10_411
*850 FILLER_10_418
*851 FILLER_10_425
*852 FILLER_10_459
*853 FILLER_10_466
*854 FILLER_10_468
*855 FILLER_10_486
*856 FILLER_10_493
*857 FILLER_10_500
*858 FILLER_10_507
*859 FILLER_10_51
*860 FILLER_10_514
*861 FILLER_10_521
*862 FILLER_10_528
*863 FILLER_10_535
*864 FILLER_10_542
*865 FILLER_10_549
*866 FILLER_10_556
*867 FILLER_10_58
*868 FILLER_10_584
*869 FILLER_10_594
*870 FILLER_10_601
*871 FILLER_10_608
*872 FILLER_10_615
*873 FILLER_10_622
*874 FILLER_10_629
*875 FILLER_10_636
*876 FILLER_10_643
*877 FILLER_10_65
*878 FILLER_10_650
*879 FILLER_10_657
*880 FILLER_10_664
*881 FILLER_10_671
*882 FILLER_10_678
*883 FILLER_10_685
*884 FILLER_10_692
*885 FILLER_10_699
*886 FILLER_10_706
*887 FILLER_10_713
*888 FILLER_10_72
*889 FILLER_10_720
*890 FILLER_10_727
*891 FILLER_10_734
*892 FILLER_10_741
*893 FILLER_10_748
*894 FILLER_10_755
*895 FILLER_10_762
*896 FILLER_10_769
*897 FILLER_10_776
*898 FILLER_10_783
*899 FILLER_10_79
*900 FILLER_10_790
*901 FILLER_10_797
*902 FILLER_10_804
*903 FILLER_10_811
*904 FILLER_10_818
*905 FILLER_10_825
*906 FILLER_10_832
*907 FILLER_10_839
*908 FILLER_10_846
*909 FILLER_10_853
*910 FILLER_10_86
*911 FILLER_10_860
*912 FILLER_10_867
*913 FILLER_10_874
*914 FILLER_10_881
*915 FILLER_10_888
*916 FILLER_10_895
*917 FILLER_10_902
*918 FILLER_10_909
*919 FILLER_10_916
*920 FILLER_10_923
*921 FILLER_10_93
*922 FILLER_10_930
*923 FILLER_10_937
*924 FILLER_10_944
*925 FILLER_10_951
*926 FILLER_10_958
*927 FILLER_10_965
*928 FILLER_10_972
*929 FILLER_10_979
*930 FILLER_10_986
*931 FILLER_10_993
*932 FILLER_11_100
*933 FILLER_11_1005
*934 FILLER_11_1012
*935 FILLER_11_1019
*936 FILLER_11_1026
*937 FILLER_11_1028
*938 FILLER_11_11
*939 FILLER_11_128
*940 FILLER_11_135
*941 FILLER_11_142
*942 FILLER_11_149
*943 FILLER_11_15
*944 FILLER_11_156
*945 FILLER_11_163
*946 FILLER_11_170
*947 FILLER_11_177
*948 FILLER_11_184
*949 FILLER_11_191
*950 FILLER_11_198
*951 FILLER_11_214
*952 FILLER_11_230
*953 FILLER_11_237
*954 FILLER_11_244
*955 FILLER_11_251
*956 FILLER_11_258
*957 FILLER_11_265
*958 FILLER_11_272
*959 FILLER_11_279
*960 FILLER_11_286
*961 FILLER_11_293
*962 FILLER_11_300
*963 FILLER_11_307
*964 FILLER_11_314
*965 FILLER_11_321
*966 FILLER_11_328
*967 FILLER_11_335
*968 FILLER_11_351
*969 FILLER_11_358
*970 FILLER_11_374
*971 FILLER_11_378
*972 FILLER_11_4
*973 FILLER_11_407
*974 FILLER_11_414
*975 FILLER_11_421
*976 FILLER_11_428
*977 FILLER_11_435
*978 FILLER_11_44
*979 FILLER_11_442
*980 FILLER_11_449
*981 FILLER_11_456
*982 FILLER_11_463
*983 FILLER_11_470
*984 FILLER_11_474
*985 FILLER_11_51
*986 FILLER_11_521
*987 FILLER_11_528
*988 FILLER_11_535
*989 FILLER_11_539
*990 FILLER_11_554
*991 FILLER_11_561
*992 FILLER_11_567
*993 FILLER_11_58
*994 FILLER_11_596
*995 FILLER_11_603
*996 FILLER_11_62
*997 FILLER_11_641
*998 FILLER_11_648
*999 FILLER_11_655
*1000 FILLER_11_662
*1001 FILLER_11_669
*1002 FILLER_11_676
*1003 FILLER_11_683
*1004 FILLER_11_690
*1005 FILLER_11_697
*1006 FILLER_11_704
*1007 FILLER_11_711
*1008 FILLER_11_718
*1009 FILLER_11_725
*1010 FILLER_11_732
*1011 FILLER_11_739
*1012 FILLER_11_746
*1013 FILLER_11_753
*1014 FILLER_11_760
*1015 FILLER_11_767
*1016 FILLER_11_774
*1017 FILLER_11_781
*1018 FILLER_11_788
*1019 FILLER_11_795
*1020 FILLER_11_802
*1021 FILLER_11_809
*1022 FILLER_11_816
*1023 FILLER_11_823
*1024 FILLER_11_830
*1025 FILLER_11_837
*1026 FILLER_11_844
*1027 FILLER_11_851
*1028 FILLER_11_858
*1029 FILLER_11_865
*1030 FILLER_11_872
*1031 FILLER_11_879
*1032 FILLER_11_886
*1033 FILLER_11_893
*1034 FILLER_11_900
*1035 FILLER_11_907
*1036 FILLER_11_91
*1037 FILLER_11_914
*1038 FILLER_11_921
*1039 FILLER_11_928
*1040 FILLER_11_935
*1041 FILLER_11_942
*1042 FILLER_11_949
*1043 FILLER_11_956
*1044 FILLER_11_963
*1045 FILLER_11_970
*1046 FILLER_11_977
*1047 FILLER_11_98
*1048 FILLER_11_984
*1049 FILLER_11_991
*1050 FILLER_11_998
*1051 FILLER_12_1006
*1052 FILLER_12_1013
*1053 FILLER_12_1020
*1054 FILLER_12_1027
*1055 FILLER_12_105
*1056 FILLER_12_11
*1057 FILLER_12_112
*1058 FILLER_12_119
*1059 FILLER_12_155
*1060 FILLER_12_162
*1061 FILLER_12_169
*1062 FILLER_12_176
*1063 FILLER_12_18
*1064 FILLER_12_183
*1065 FILLER_12_190
*1066 FILLER_12_197
*1067 FILLER_12_204
*1068 FILLER_12_211
*1069 FILLER_12_225
*1070 FILLER_12_232
*1071 FILLER_12_239
*1072 FILLER_12_246
*1073 FILLER_12_25
*1074 FILLER_12_253
*1075 FILLER_12_260
*1076 FILLER_12_267
*1077 FILLER_12_274
*1078 FILLER_12_281
*1079 FILLER_12_291
*1080 FILLER_12_298
*1081 FILLER_12_30
*1082 FILLER_12_305
*1083 FILLER_12_312
*1084 FILLER_12_319
*1085 FILLER_12_326
*1086 FILLER_12_333
*1087 FILLER_12_34
*1088 FILLER_12_340
*1089 FILLER_12_347
*1090 FILLER_12_354
*1091 FILLER_12_361
*1092 FILLER_12_368
*1093 FILLER_12_375
*1094 FILLER_12_377
*1095 FILLER_12_4
*1096 FILLER_12_404
*1097 FILLER_12_411
*1098 FILLER_12_418
*1099 FILLER_12_430
*1100 FILLER_12_437
*1101 FILLER_12_444
*1102 FILLER_12_45
*1103 FILLER_12_451
*1104 FILLER_12_458
*1105 FILLER_12_465
*1106 FILLER_12_472
*1107 FILLER_12_479
*1108 FILLER_12_508
*1109 FILLER_12_515
*1110 FILLER_12_52
*1111 FILLER_12_522
*1112 FILLER_12_529
*1113 FILLER_12_536
*1114 FILLER_12_543
*1115 FILLER_12_550
*1116 FILLER_12_557
*1117 FILLER_12_564
*1118 FILLER_12_573
*1119 FILLER_12_584
*1120 FILLER_12_59
*1121 FILLER_12_591
*1122 FILLER_12_598
*1123 FILLER_12_610
*1124 FILLER_12_614
*1125 FILLER_12_620
*1126 FILLER_12_624
*1127 FILLER_12_635
*1128 FILLER_12_642
*1129 FILLER_12_649
*1130 FILLER_12_656
*1131 FILLER_12_66
*1132 FILLER_12_663
*1133 FILLER_12_670
*1134 FILLER_12_677
*1135 FILLER_12_684
*1136 FILLER_12_691
*1137 FILLER_12_698
*1138 FILLER_12_705
*1139 FILLER_12_712
*1140 FILLER_12_719
*1141 FILLER_12_726
*1142 FILLER_12_73
*1143 FILLER_12_733
*1144 FILLER_12_740
*1145 FILLER_12_747
*1146 FILLER_12_754
*1147 FILLER_12_761
*1148 FILLER_12_768
*1149 FILLER_12_775
*1150 FILLER_12_782
*1151 FILLER_12_789
*1152 FILLER_12_796
*1153 FILLER_12_80
*1154 FILLER_12_803
*1155 FILLER_12_810
*1156 FILLER_12_817
*1157 FILLER_12_824
*1158 FILLER_12_831
*1159 FILLER_12_838
*1160 FILLER_12_845
*1161 FILLER_12_852
*1162 FILLER_12_859
*1163 FILLER_12_866
*1164 FILLER_12_87
*1165 FILLER_12_873
*1166 FILLER_12_880
*1167 FILLER_12_887
*1168 FILLER_12_894
*1169 FILLER_12_901
*1170 FILLER_12_908
*1171 FILLER_12_915
*1172 FILLER_12_922
*1173 FILLER_12_929
*1174 FILLER_12_936
*1175 FILLER_12_94
*1176 FILLER_12_943
*1177 FILLER_12_950
*1178 FILLER_12_957
*1179 FILLER_12_964
*1180 FILLER_12_971
*1181 FILLER_12_978
*1182 FILLER_12_985
*1183 FILLER_12_992
*1184 FILLER_12_999
*1185 FILLER_13_1005
*1186 FILLER_13_1012
*1187 FILLER_13_1019
*1188 FILLER_13_1026
*1189 FILLER_13_1028
*1190 FILLER_13_103
*1191 FILLER_13_11
*1192 FILLER_13_110
*1193 FILLER_13_117
*1194 FILLER_13_124
*1195 FILLER_13_137
*1196 FILLER_13_144
*1197 FILLER_13_151
*1198 FILLER_13_153
*1199 FILLER_13_18
*1200 FILLER_13_190
*1201 FILLER_13_197
*1202 FILLER_13_204
*1203 FILLER_13_208
*1204 FILLER_13_222
*1205 FILLER_13_229
*1206 FILLER_13_236
*1207 FILLER_13_243
*1208 FILLER_13_247
*1209 FILLER_13_25
*1210 FILLER_13_275
*1211 FILLER_13_282
*1212 FILLER_13_289
*1213 FILLER_13_296
*1214 FILLER_13_303
*1215 FILLER_13_310
*1216 FILLER_13_32
*1217 FILLER_13_322
*1218 FILLER_13_331
*1219 FILLER_13_347
*1220 FILLER_13_354
*1221 FILLER_13_361
*1222 FILLER_13_365
*1223 FILLER_13_39
*1224 FILLER_13_394
*1225 FILLER_13_4
*1226 FILLER_13_401
*1227 FILLER_13_408
*1228 FILLER_13_424
*1229 FILLER_13_428
*1230 FILLER_13_457
*1231 FILLER_13_46
*1232 FILLER_13_464
*1233 FILLER_13_471
*1234 FILLER_13_478
*1235 FILLER_13_485
*1236 FILLER_13_492
*1237 FILLER_13_499
*1238 FILLER_13_506
*1239 FILLER_13_513
*1240 FILLER_13_520
*1241 FILLER_13_527
*1242 FILLER_13_53
*1243 FILLER_13_544
*1244 FILLER_13_551
*1245 FILLER_13_558
*1246 FILLER_13_565
*1247 FILLER_13_572
*1248 FILLER_13_579
*1249 FILLER_13_586
*1250 FILLER_13_593
*1251 FILLER_13_60
*1252 FILLER_13_600
*1253 FILLER_13_604
*1254 FILLER_13_613
*1255 FILLER_13_641
*1256 FILLER_13_648
*1257 FILLER_13_655
*1258 FILLER_13_662
*1259 FILLER_13_669
*1260 FILLER_13_67
*1261 FILLER_13_676
*1262 FILLER_13_683
*1263 FILLER_13_690
*1264 FILLER_13_697
*1265 FILLER_13_704
*1266 FILLER_13_711
*1267 FILLER_13_718
*1268 FILLER_13_725
*1269 FILLER_13_732
*1270 FILLER_13_739
*1271 FILLER_13_74
*1272 FILLER_13_746
*1273 FILLER_13_753
*1274 FILLER_13_760
*1275 FILLER_13_767
*1276 FILLER_13_774
*1277 FILLER_13_781
*1278 FILLER_13_788
*1279 FILLER_13_795
*1280 FILLER_13_802
*1281 FILLER_13_809
*1282 FILLER_13_81
*1283 FILLER_13_816
*1284 FILLER_13_823
*1285 FILLER_13_830
*1286 FILLER_13_837
*1287 FILLER_13_844
*1288 FILLER_13_851
*1289 FILLER_13_858
*1290 FILLER_13_865
*1291 FILLER_13_872
*1292 FILLER_13_879
*1293 FILLER_13_88
*1294 FILLER_13_886
*1295 FILLER_13_893
*1296 FILLER_13_900
*1297 FILLER_13_907
*1298 FILLER_13_914
*1299 FILLER_13_921
*1300 FILLER_13_928
*1301 FILLER_13_935
*1302 FILLER_13_942
*1303 FILLER_13_949
*1304 FILLER_13_956
*1305 FILLER_13_963
*1306 FILLER_13_970
*1307 FILLER_13_977
*1308 FILLER_13_984
*1309 FILLER_13_991
*1310 FILLER_13_998
*1311 FILLER_14_1003
*1312 FILLER_14_1010
*1313 FILLER_14_1017
*1314 FILLER_14_102
*1315 FILLER_14_1024
*1316 FILLER_14_1028
*1317 FILLER_14_109
*1318 FILLER_14_11
*1319 FILLER_14_116
*1320 FILLER_14_123
*1321 FILLER_14_130
*1322 FILLER_14_137
*1323 FILLER_14_144
*1324 FILLER_14_151
*1325 FILLER_14_158
*1326 FILLER_14_165
*1327 FILLER_14_172
*1328 FILLER_14_179
*1329 FILLER_14_18
*1330 FILLER_14_181
*1331 FILLER_14_195
*1332 FILLER_14_202
*1333 FILLER_14_209
*1334 FILLER_14_216
*1335 FILLER_14_223
*1336 FILLER_14_230
*1337 FILLER_14_242
*1338 FILLER_14_244
*1339 FILLER_14_25
*1340 FILLER_14_254
*1341 FILLER_14_261
*1342 FILLER_14_268
*1343 FILLER_14_275
*1344 FILLER_14_282
*1345 FILLER_14_289
*1346 FILLER_14_296
*1347 FILLER_14_303
*1348 FILLER_14_32
*1349 FILLER_14_336
*1350 FILLER_14_343
*1351 FILLER_14_350
*1352 FILLER_14_357
*1353 FILLER_14_364
*1354 FILLER_14_371
*1355 FILLER_14_378
*1356 FILLER_14_385
*1357 FILLER_14_39
*1358 FILLER_14_392
*1359 FILLER_14_399
*1360 FILLER_14_4
*1361 FILLER_14_406
*1362 FILLER_14_413
*1363 FILLER_14_447
*1364 FILLER_14_454
*1365 FILLER_14_46
*1366 FILLER_14_461
*1367 FILLER_14_468
*1368 FILLER_14_475
*1369 FILLER_14_488
*1370 FILLER_14_495
*1371 FILLER_14_499
*1372 FILLER_14_518
*1373 FILLER_14_525
*1374 FILLER_14_53
*1375 FILLER_14_532
*1376 FILLER_14_539
*1377 FILLER_14_546
*1378 FILLER_14_563
*1379 FILLER_14_570
*1380 FILLER_14_577
*1381 FILLER_14_584
*1382 FILLER_14_591
*1383 FILLER_14_598
*1384 FILLER_14_60
*1385 FILLER_14_605
*1386 FILLER_14_612
*1387 FILLER_14_619
*1388 FILLER_14_626
*1389 FILLER_14_639
*1390 FILLER_14_646
*1391 FILLER_14_653
*1392 FILLER_14_660
*1393 FILLER_14_667
*1394 FILLER_14_67
*1395 FILLER_14_674
*1396 FILLER_14_681
*1397 FILLER_14_688
*1398 FILLER_14_695
*1399 FILLER_14_702
*1400 FILLER_14_709
*1401 FILLER_14_716
*1402 FILLER_14_723
*1403 FILLER_14_730
*1404 FILLER_14_737
*1405 FILLER_14_74
*1406 FILLER_14_744
*1407 FILLER_14_751
*1408 FILLER_14_758
*1409 FILLER_14_765
*1410 FILLER_14_772
*1411 FILLER_14_779
*1412 FILLER_14_786
*1413 FILLER_14_793
*1414 FILLER_14_800
*1415 FILLER_14_807
*1416 FILLER_14_81
*1417 FILLER_14_814
*1418 FILLER_14_821
*1419 FILLER_14_828
*1420 FILLER_14_835
*1421 FILLER_14_842
*1422 FILLER_14_849
*1423 FILLER_14_856
*1424 FILLER_14_863
*1425 FILLER_14_870
*1426 FILLER_14_877
*1427 FILLER_14_88
*1428 FILLER_14_884
*1429 FILLER_14_891
*1430 FILLER_14_898
*1431 FILLER_14_905
*1432 FILLER_14_912
*1433 FILLER_14_919
*1434 FILLER_14_926
*1435 FILLER_14_933
*1436 FILLER_14_940
*1437 FILLER_14_947
*1438 FILLER_14_95
*1439 FILLER_14_954
*1440 FILLER_14_961
*1441 FILLER_14_968
*1442 FILLER_14_975
*1443 FILLER_14_982
*1444 FILLER_14_989
*1445 FILLER_14_996
*1446 FILLER_15_1000
*1447 FILLER_15_1007
*1448 FILLER_15_1014
*1449 FILLER_15_102
*1450 FILLER_15_1021
*1451 FILLER_15_1028
*1452 FILLER_15_109
*1453 FILLER_15_11
*1454 FILLER_15_116
*1455 FILLER_15_123
*1456 FILLER_15_130
*1457 FILLER_15_137
*1458 FILLER_15_144
*1459 FILLER_15_151
*1460 FILLER_15_158
*1461 FILLER_15_165
*1462 FILLER_15_172
*1463 FILLER_15_179
*1464 FILLER_15_18
*1465 FILLER_15_199
*1466 FILLER_15_206
*1467 FILLER_15_213
*1468 FILLER_15_227
*1469 FILLER_15_229
*1470 FILLER_15_247
*1471 FILLER_15_25
*1472 FILLER_15_254
*1473 FILLER_15_261
*1474 FILLER_15_268
*1475 FILLER_15_275
*1476 FILLER_15_282
*1477 FILLER_15_286
*1478 FILLER_15_32
*1479 FILLER_15_328
*1480 FILLER_15_335
*1481 FILLER_15_342
*1482 FILLER_15_349
*1483 FILLER_15_356
*1484 FILLER_15_370
*1485 FILLER_15_377
*1486 FILLER_15_384
*1487 FILLER_15_39
*1488 FILLER_15_391
*1489 FILLER_15_398
*1490 FILLER_15_4
*1491 FILLER_15_405
*1492 FILLER_15_412
*1493 FILLER_15_419
*1494 FILLER_15_421
*1495 FILLER_15_426
*1496 FILLER_15_441
*1497 FILLER_15_448
*1498 FILLER_15_455
*1499 FILLER_15_46
*1500 FILLER_15_462
*1501 FILLER_15_469
*1502 FILLER_15_476
*1503 FILLER_15_483
*1504 FILLER_15_490
*1505 FILLER_15_497
*1506 FILLER_15_504
*1507 FILLER_15_506
*1508 FILLER_15_511
*1509 FILLER_15_526
*1510 FILLER_15_53
*1511 FILLER_15_533
*1512 FILLER_15_540
*1513 FILLER_15_544
*1514 FILLER_15_559
*1515 FILLER_15_587
*1516 FILLER_15_594
*1517 FILLER_15_60
*1518 FILLER_15_601
*1519 FILLER_15_608
*1520 FILLER_15_615
*1521 FILLER_15_622
*1522 FILLER_15_629
*1523 FILLER_15_636
*1524 FILLER_15_643
*1525 FILLER_15_650
*1526 FILLER_15_657
*1527 FILLER_15_664
*1528 FILLER_15_67
*1529 FILLER_15_671
*1530 FILLER_15_678
*1531 FILLER_15_685
*1532 FILLER_15_692
*1533 FILLER_15_699
*1534 FILLER_15_706
*1535 FILLER_15_713
*1536 FILLER_15_720
*1537 FILLER_15_727
*1538 FILLER_15_734
*1539 FILLER_15_74
*1540 FILLER_15_741
*1541 FILLER_15_748
*1542 FILLER_15_755
*1543 FILLER_15_762
*1544 FILLER_15_769
*1545 FILLER_15_776
*1546 FILLER_15_783
*1547 FILLER_15_790
*1548 FILLER_15_797
*1549 FILLER_15_804
*1550 FILLER_15_81
*1551 FILLER_15_811
*1552 FILLER_15_818
*1553 FILLER_15_825
*1554 FILLER_15_832
*1555 FILLER_15_839
*1556 FILLER_15_846
*1557 FILLER_15_853
*1558 FILLER_15_860
*1559 FILLER_15_867
*1560 FILLER_15_874
*1561 FILLER_15_881
*1562 FILLER_15_888
*1563 FILLER_15_895
*1564 FILLER_15_902
*1565 FILLER_15_909
*1566 FILLER_15_916
*1567 FILLER_15_923
*1568 FILLER_15_930
*1569 FILLER_15_937
*1570 FILLER_15_944
*1571 FILLER_15_95
*1572 FILLER_15_951
*1573 FILLER_15_958
*1574 FILLER_15_965
*1575 FILLER_15_972
*1576 FILLER_15_979
*1577 FILLER_15_986
*1578 FILLER_15_993
*1579 FILLER_16_1006
*1580 FILLER_16_1013
*1581 FILLER_16_1020
*1582 FILLER_16_1027
*1583 FILLER_16_11
*1584 FILLER_16_123
*1585 FILLER_16_130
*1586 FILLER_16_137
*1587 FILLER_16_144
*1588 FILLER_16_151
*1589 FILLER_16_158
*1590 FILLER_16_165
*1591 FILLER_16_18
*1592 FILLER_16_196
*1593 FILLER_16_203
*1594 FILLER_16_210
*1595 FILLER_16_217
*1596 FILLER_16_224
*1597 FILLER_16_231
*1598 FILLER_16_237
*1599 FILLER_16_247
*1600 FILLER_16_25
*1601 FILLER_16_254
*1602 FILLER_16_261
*1603 FILLER_16_274
*1604 FILLER_16_281
*1605 FILLER_16_288
*1606 FILLER_16_295
*1607 FILLER_16_302
*1608 FILLER_16_309
*1609 FILLER_16_316
*1610 FILLER_16_32
*1611 FILLER_16_323
*1612 FILLER_16_330
*1613 FILLER_16_337
*1614 FILLER_16_34
*1615 FILLER_16_344
*1616 FILLER_16_351
*1617 FILLER_16_358
*1618 FILLER_16_365
*1619 FILLER_16_372
*1620 FILLER_16_379
*1621 FILLER_16_386
*1622 FILLER_16_393
*1623 FILLER_16_4
*1624 FILLER_16_421
*1625 FILLER_16_425
*1626 FILLER_16_436
*1627 FILLER_16_443
*1628 FILLER_16_450
*1629 FILLER_16_457
*1630 FILLER_16_464
*1631 FILLER_16_471
*1632 FILLER_16_478
*1633 FILLER_16_485
*1634 FILLER_16_492
*1635 FILLER_16_499
*1636 FILLER_16_517
*1637 FILLER_16_524
*1638 FILLER_16_531
*1639 FILLER_16_538
*1640 FILLER_16_545
*1641 FILLER_16_579
*1642 FILLER_16_586
*1643 FILLER_16_593
*1644 FILLER_16_600
*1645 FILLER_16_607
*1646 FILLER_16_614
*1647 FILLER_16_62
*1648 FILLER_16_621
*1649 FILLER_16_628
*1650 FILLER_16_635