*SPEF "ieee 1481-1999"
*DESIGN "heichips25_template"
*DATE "11:03:01 Wednesday August 20, 2025"
*VENDOR "The OpenROAD Project"
*PROGRAM "OpenROAD"
*VERSION "341650e72dad0dc8571822ff8c5d9c5e365327f7"
*DESIGN_FLOW "NAME_SCOPE LOCAL" "PIN_CAP NONE"
*DIVIDER /
*DELIMITER :
*BUS_DELIMITER []
*T_UNIT 1 NS
*C_UNIT 1 PF
*R_UNIT 1 OHM
*L_UNIT 1 HENRY

*NAME_MAP
*3 clk
*4 ena
*5 rst_n
*6 ui_in[0]
*7 ui_in[1]
*8 ui_in[2]
*9 ui_in[3]
*10 ui_in[4]
*11 ui_in[5]
*12 ui_in[6]
*13 ui_in[7]
*14 uio_in[0]
*15 uio_in[1]
*16 uio_in[2]
*17 uio_in[3]
*18 uio_in[4]
*19 uio_in[5]
*20 uio_in[6]
*21 uio_in[7]
*22 net17
*23 net18
*24 net19
*25 net20
*26 net21
*27 net22
*28 net23
*29 net24
*30 net5
*31 net6
*32 net7
*33 net8
*34 net9
*35 net10
*36 net11
*37 net12
*38 uo_out[0]
*39 uo_out[1]
*40 uo_out[2]
*41 uo_out[3]
*42 net13
*43 net14
*44 net15
*45 net16
*46 DP_1\.matrix\[0\]
*47 DP_1\.matrix\[10\]
*48 DP_1\.matrix\[18\]
*49 DP_1\.matrix\[19\]
*50 DP_1\.matrix\[1\]
*51 DP_1\.matrix\[27\]
*52 DP_1\.matrix\[28\]
*53 DP_1\.matrix\[36\]
*54 DP_1\.matrix\[37\]
*55 DP_1\.matrix\[45\]
*56 DP_1\.matrix\[46\]
*57 DP_1\.matrix\[54\]
*58 DP_1\.matrix\[55\]
*59 DP_1\.matrix\[63\]
*60 DP_1\.matrix\[64\]
*61 DP_1\.matrix\[72\]
*62 DP_1\.matrix\[73\]
*63 DP_1\.matrix\[9\]
*64 DP_2\.matrix\[0\]
*65 DP_2\.matrix\[10\]
*66 DP_2\.matrix\[18\]
*67 DP_2\.matrix\[19\]
*68 DP_2\.matrix\[1\]
*69 DP_2\.matrix\[27\]
*70 DP_2\.matrix\[28\]
*71 DP_2\.matrix\[36\]
*72 DP_2\.matrix\[37\]
*73 DP_2\.matrix\[45\]
*74 DP_2\.matrix\[46\]
*75 DP_2\.matrix\[54\]
*76 DP_2\.matrix\[55\]
*77 DP_2\.matrix\[63\]
*78 DP_2\.matrix\[64\]
*79 DP_2\.matrix\[72\]
*80 DP_2\.matrix\[73\]
*81 DP_2\.matrix\[9\]
*82 DP_3\.matrix\[0\]
*83 DP_3\.matrix\[10\]
*84 DP_3\.matrix\[18\]
*85 DP_3\.matrix\[19\]
*86 DP_3\.matrix\[1\]
*87 DP_3\.matrix\[27\]
*88 DP_3\.matrix\[28\]
*89 DP_3\.matrix\[36\]
*90 DP_3\.matrix\[37\]
*91 DP_3\.matrix\[45\]
*92 DP_3\.matrix\[46\]
*93 DP_3\.matrix\[54\]
*94 DP_3\.matrix\[55\]
*95 DP_3\.matrix\[63\]
*96 DP_3\.matrix\[64\]
*97 DP_3\.matrix\[72\]
*98 DP_3\.matrix\[73\]
*99 DP_3\.matrix\[9\]
*100 DP_4\.matrix\[0\]
*101 DP_4\.matrix\[10\]
*102 DP_4\.matrix\[18\]
*103 DP_4\.matrix\[19\]
*104 DP_4\.matrix\[1\]
*105 DP_4\.matrix\[27\]
*106 DP_4\.matrix\[28\]
*107 DP_4\.matrix\[36\]
*108 DP_4\.matrix\[37\]
*109 DP_4\.matrix\[45\]
*110 DP_4\.matrix\[46\]
*111 DP_4\.matrix\[54\]
*112 DP_4\.matrix\[55\]
*113 DP_4\.matrix\[63\]
*114 DP_4\.matrix\[64\]
*115 DP_4\.matrix\[72\]
*116 DP_4\.matrix\[73\]
*117 DP_4\.matrix\[9\]
*118 _000_
*119 _001_
*120 _002_
*121 _003_
*122 _004_
*123 _005_
*124 _006_
*125 _007_
*126 _008_
*127 _009_
*128 _010_
*129 _011_
*130 _012_
*131 _013_
*132 _014_
*133 _015_
*134 _016_
*135 _017_
*136 _018_
*137 _019_
*138 _020_
*139 _021_
*140 _022_
*141 _023_
*142 _024_
*143 _025_
*144 _026_
*145 _027_
*146 _028_
*147 _029_
*148 _030_
*149 _031_
*150 _032_
*151 _033_
*152 _034_
*153 _035_
*154 _036_
*155 _037_
*156 _038_
*157 _039_
*158 _040_
*159 _041_
*160 _042_
*161 _043_
*162 _044_
*163 _045_
*164 _046_
*165 _047_
*166 _048_
*167 _049_
*168 _050_
*169 _051_
*170 _052_
*171 _053_
*172 _054_
*173 _055_
*174 _056_
*175 _057_
*176 _058_
*177 _059_
*178 _060_
*179 _061_
*180 _062_
*181 _063_
*182 _064_
*183 _065_
*184 _066_
*185 _067_
*186 _068_
*187 _069_
*188 _070_
*189 _071_
*190 _072_
*191 _073_
*192 _074_
*193 _075_
*194 _076_
*195 _077_
*196 _078_
*197 _079_
*198 _080_
*199 _081_
*200 _082_
*201 _083_
*202 _084_
*203 _085_
*204 _086_
*205 _087_
*206 _088_
*207 _089_
*208 _090_
*209 _091_
*210 _092_
*211 _093_
*212 _094_
*213 _095_
*214 _096_
*215 _097_
*216 _098_
*217 _099_
*218 _100_
*219 _101_
*220 _102_
*221 _103_
*222 _104_
*223 _105_
*224 _106_
*225 _107_
*226 _108_
*227 _109_
*228 _110_
*229 _111_
*230 _112_
*231 _113_
*232 _114_
*233 _115_
*234 _116_
*235 _117_
*236 _118_
*237 _119_
*238 _120_
*239 _121_
*240 _122_
*241 _123_
*242 _124_
*243 _125_
*244 _126_
*245 _127_
*246 _128_
*247 _129_
*248 _130_
*249 _131_
*250 _132_
*251 _133_
*252 _134_
*253 _135_
*254 _136_
*255 _137_
*256 _138_
*257 _139_
*258 _140_
*259 _141_
*260 _142_
*261 _143_
*262 _144_
*263 _145_
*264 _146_
*265 _147_
*266 _148_
*267 _149_
*268 _150_
*269 _151_
*270 _152_
*271 _153_
*272 _154_
*273 _155_
*274 _156_
*275 _157_
*276 _158_
*277 _159_
*278 _160_
*279 _161_
*280 _162_
*281 _163_
*282 _164_
*283 _165_
*284 _166_
*285 _167_
*286 _168_
*287 _169_
*288 _170_
*289 _171_
*290 _172_
*291 _173_
*292 _174_
*293 _175_
*294 _176_
*295 _177_
*296 _178_
*297 _179_
*298 _180_
*299 _181_
*300 _182_
*301 _183_
*302 _184_
*303 _185_
*304 _186_
*305 _187_
*306 _188_
*307 _189_
*308 _190_
*309 _191_
*310 _192_
*311 _193_
*312 _194_
*313 _195_
*314 _196_
*315 _197_
*316 _198_
*317 _199_
*318 _200_
*319 _201_
*320 _202_
*321 _203_
*322 _204_
*323 _205_
*324 _206_
*325 _207_
*326 _208_
*327 _209_
*328 _210_
*329 _211_
*330 _212_
*331 _213_
*332 _214_
*333 _215_
*334 _216_
*335 _217_
*336 _218_
*337 _219_
*338 _220_
*339 _221_
*340 clknet_0_clk
*341 clknet_4_0_0_clk
*342 clknet_4_10_0_clk
*343 clknet_4_11_0_clk
*344 clknet_4_12_0_clk
*345 clknet_4_13_0_clk
*346 clknet_4_14_0_clk
*347 clknet_4_15_0_clk
*348 clknet_4_1_0_clk
*349 clknet_4_2_0_clk
*350 clknet_4_3_0_clk
*351 clknet_4_4_0_clk
*352 clknet_4_5_0_clk
*353 clknet_4_6_0_clk
*354 clknet_4_7_0_clk
*355 clknet_4_8_0_clk
*356 clknet_4_9_0_clk
*357 clknet_5_0__leaf_clk
*358 clknet_5_10__leaf_clk
*359 clknet_5_11__leaf_clk
*360 clknet_5_12__leaf_clk
*361 clknet_5_13__leaf_clk
*362 clknet_5_14__leaf_clk
*363 clknet_5_15__leaf_clk
*364 clknet_5_16__leaf_clk
*365 clknet_5_17__leaf_clk
*366 clknet_5_18__leaf_clk
*367 clknet_5_19__leaf_clk
*368 clknet_5_1__leaf_clk
*369 clknet_5_20__leaf_clk
*370 clknet_5_21__leaf_clk
*371 clknet_5_22__leaf_clk
*372 clknet_5_23__leaf_clk
*373 clknet_5_24__leaf_clk
*374 clknet_5_25__leaf_clk
*375 clknet_5_26__leaf_clk
*376 clknet_5_27__leaf_clk
*377 clknet_5_28__leaf_clk
*378 clknet_5_29__leaf_clk
*379 clknet_5_2__leaf_clk
*380 clknet_5_30__leaf_clk
*381 clknet_5_31__leaf_clk
*382 clknet_5_3__leaf_clk
*383 clknet_5_4__leaf_clk
*384 clknet_5_5__leaf_clk
*385 clknet_5_6__leaf_clk
*386 clknet_5_7__leaf_clk
*387 clknet_5_8__leaf_clk
*388 clknet_5_9__leaf_clk
*389 mac1\.products_ff\[0\]
*390 mac1\.products_ff\[102\]
*391 mac1\.products_ff\[103\]
*392 mac1\.products_ff\[119\]
*393 mac1\.products_ff\[120\]
*394 mac1\.products_ff\[136\]
*395 mac1\.products_ff\[137\]
*396 mac1\.products_ff\[17\]
*397 mac1\.products_ff\[18\]
*398 mac1\.products_ff\[1\]
*399 mac1\.products_ff\[34\]
*400 mac1\.products_ff\[35\]
*401 mac1\.products_ff\[51\]
*402 mac1\.products_ff\[52\]
*403 mac1\.products_ff\[68\]
*404 mac1\.products_ff\[69\]
*405 mac1\.products_ff\[85\]
*406 mac1\.products_ff\[86\]
*407 mac1\.sum_lvl1_ff\[0\]
*408 mac1\.sum_lvl1_ff\[16\]
*409 mac1\.sum_lvl1_ff\[17\]
*410 mac1\.sum_lvl1_ff\[1\]
*411 mac1\.sum_lvl1_ff\[24\]
*412 mac1\.sum_lvl1_ff\[25\]
*413 mac1\.sum_lvl1_ff\[32\]
*414 mac1\.sum_lvl1_ff\[33\]
*415 mac1\.sum_lvl1_ff\[8\]
*416 mac1\.sum_lvl1_ff\[9\]
*417 mac1\.sum_lvl2_ff\[0\]
*418 mac1\.sum_lvl2_ff\[1\]
*419 mac1\.sum_lvl2_ff\[4\]
*420 mac1\.sum_lvl2_ff\[5\]
*421 mac1\.sum_lvl2_ff\[8\]
*422 mac1\.sum_lvl2_ff\[9\]
*423 mac1\.sum_lvl3_ff\[0\]
*424 mac1\.sum_lvl3_ff\[1\]
*425 mac1\.sum_lvl3_ff\[2\]
*426 mac1\.sum_lvl3_ff\[3\]
*427 mac1\.total_sum\[0\]
*428 mac1\.total_sum\[1\]
*429 mac1\.total_sum\[2\]
*430 mac2\.products_ff\[0\]
*431 mac2\.products_ff\[102\]
*432 mac2\.products_ff\[103\]
*433 mac2\.products_ff\[119\]
*434 mac2\.products_ff\[120\]
*435 mac2\.products_ff\[136\]
*436 mac2\.products_ff\[137\]
*437 mac2\.products_ff\[17\]
*438 mac2\.products_ff\[18\]
*439 mac2\.products_ff\[1\]
*440 mac2\.products_ff\[34\]
*441 mac2\.products_ff\[35\]
*442 mac2\.products_ff\[51\]
*443 mac2\.products_ff\[52\]
*444 mac2\.products_ff\[68\]
*445 mac2\.products_ff\[69\]
*446 mac2\.products_ff\[85\]
*447 mac2\.products_ff\[86\]
*448 mac2\.sum_lvl1_ff\[0\]
*449 mac2\.sum_lvl1_ff\[16\]
*450 mac2\.sum_lvl1_ff\[17\]
*451 mac2\.sum_lvl1_ff\[1\]
*452 mac2\.sum_lvl1_ff\[24\]
*453 mac2\.sum_lvl1_ff\[25\]
*454 mac2\.sum_lvl1_ff\[32\]
*455 mac2\.sum_lvl1_ff\[33\]
*456 mac2\.sum_lvl1_ff\[8\]
*457 mac2\.sum_lvl1_ff\[9\]
*458 mac2\.sum_lvl2_ff\[0\]
*459 mac2\.sum_lvl2_ff\[1\]
*460 mac2\.sum_lvl2_ff\[4\]
*461 mac2\.sum_lvl2_ff\[5\]
*462 mac2\.sum_lvl2_ff\[8\]
*463 mac2\.sum_lvl2_ff\[9\]
*464 mac2\.sum_lvl3_ff\[0\]
*465 mac2\.sum_lvl3_ff\[1\]
*466 mac2\.sum_lvl3_ff\[2\]
*467 mac2\.sum_lvl3_ff\[3\]
*468 mac2\.total_sum\[0\]
*469 mac2\.total_sum\[1\]
*470 mac2\.total_sum\[2\]
*471 net1
*472 net100
*473 net101
*474 net102
*475 net103
*476 net104
*477 net105
*478 net106
*479 net107
*480 net108
*481 net109
*482 net110
*483 net111
*484 net112
*485 net113
*486 net114
*487 net115
*488 net116
*489 net117
*490 net118
*491 net119
*492 net120
*493 net121
*494 net122
*495 net123
*496 net124
*497 net125
*498 net126
*499 net127
*500 net128
*501 net129
*502 net130
*503 net131
*504 net132
*505 net133
*506 net134
*507 net135
*508 net136
*509 net137
*510 net138
*511 net139
*512 net140
*513 net141
*514 net142
*515 net143
*516 net144
*517 net145
*518 net146
*519 net147
*520 net148
*521 net149
*522 net150
*523 net151
*524 net152
*525 net153
*526 net154
*527 net155
*528 net156
*529 net157
*530 net158
*531 net159
*532 net160
*533 net161
*534 net162
*535 net163
*536 net164
*537 net165
*538 net166
*539 net167
*540 net168
*541 net169
*542 net170
*543 net171
*544 net172
*545 net173
*546 net174
*547 net175
*548 net176
*549 net177
*550 net178
*551 net179
*552 net180
*553 net181
*554 net182
*555 net183
*556 net184
*557 net185
*558 net186
*559 net187
*560 net188
*561 net189
*562 net190
*563 net191
*564 net192
*565 net193
*566 net194
*567 net195
*568 net196
*569 net197
*570 net198
*571 net199
*572 net2
*573 net200
*574 net201
*575 net202
*576 net203
*577 net204
*578 net25
*579 net26
*580 net27
*581 net28
*582 net29
*583 net3
*584 net30
*585 net31
*586 net32
*587 net33
*588 net34
*589 net35
*590 net36
*591 net37
*592 net38
*593 net39
*594 net4
*595 net40
*596 net41
*597 net42
*598 net43
*599 net44
*600 net45
*601 net46
*602 net47
*603 net48
*604 net49
*605 net50
*606 net51
*607 net52
*608 net53
*609 net54
*610 net55
*611 net56
*612 net57
*613 net58
*614 net59
*615 net60
*616 net61
*617 net62
*618 net63
*619 net64
*620 net65
*621 net66
*622 net67
*623 net68
*624 net69
*625 net70
*626 net71
*627 net72
*628 net73
*629 net74
*630 net75
*631 net76
*632 net77
*633 net78
*634 net79
*635 net80
*636 net81
*637 net82
*638 net83
*639 net84
*640 net85
*641 net86
*642 net87
*643 net88
*644 net89
*645 net90
*646 net91
*647 net92
*648 net93
*649 net94
*650 net95
*651 net96
*652 net97
*653 net98
*654 net99
*655 FILLER_0_0
*656 FILLER_0_1001
*657 FILLER_0_1008
*658 FILLER_0_1015
*659 FILLER_0_1022
*660 FILLER_0_105
*661 FILLER_0_112
*662 FILLER_0_119
*663 FILLER_0_126
*664 FILLER_0_133
*665 FILLER_0_14
*666 FILLER_0_140
*667 FILLER_0_147
*668 FILLER_0_154
*669 FILLER_0_161
*670 FILLER_0_168
*671 FILLER_0_175
*672 FILLER_0_182
*673 FILLER_0_189
*674 FILLER_0_196
*675 FILLER_0_203
*676 FILLER_0_21
*677 FILLER_0_210
*678 FILLER_0_217
*679 FILLER_0_224
*680 FILLER_0_231
*681 FILLER_0_238
*682 FILLER_0_245
*683 FILLER_0_252
*684 FILLER_0_259
*685 FILLER_0_266
*686 FILLER_0_273
*687 FILLER_0_28
*688 FILLER_0_280
*689 FILLER_0_287
*690 FILLER_0_294
*691 FILLER_0_301
*692 FILLER_0_308
*693 FILLER_0_315
*694 FILLER_0_322
*695 FILLER_0_329
*696 FILLER_0_336
*697 FILLER_0_343
*698 FILLER_0_35
*699 FILLER_0_350
*700 FILLER_0_357
*701 FILLER_0_364
*702 FILLER_0_371
*703 FILLER_0_378
*704 FILLER_0_385
*705 FILLER_0_392
*706 FILLER_0_399
*707 FILLER_0_406
*708 FILLER_0_413
*709 FILLER_0_42
*710 FILLER_0_420
*711 FILLER_0_427
*712 FILLER_0_434
*713 FILLER_0_441
*714 FILLER_0_448
*715 FILLER_0_455
*716 FILLER_0_462
*717 FILLER_0_469
*718 FILLER_0_476
*719 FILLER_0_483
*720 FILLER_0_49
*721 FILLER_0_490
*722 FILLER_0_497
*723 FILLER_0_504
*724 FILLER_0_511
*725 FILLER_0_518
*726 FILLER_0_525
*727 FILLER_0_532
*728 FILLER_0_539
*729 FILLER_0_546
*730 FILLER_0_553
*731 FILLER_0_56
*732 FILLER_0_560
*733 FILLER_0_567
*734 FILLER_0_574
*735 FILLER_0_581
*736 FILLER_0_588
*737 FILLER_0_595
*738 FILLER_0_602
*739 FILLER_0_609
*740 FILLER_0_616
*741 FILLER_0_623
*742 FILLER_0_63
*743 FILLER_0_630
*744 FILLER_0_637
*745 FILLER_0_644
*746 FILLER_0_651
*747 FILLER_0_658
*748 FILLER_0_665
*749 FILLER_0_672
*750 FILLER_0_679
*751 FILLER_0_686
*752 FILLER_0_693
*753 FILLER_0_7
*754 FILLER_0_70
*755 FILLER_0_700
*756 FILLER_0_707
*757 FILLER_0_714
*758 FILLER_0_721
*759 FILLER_0_728
*760 FILLER_0_735
*761 FILLER_0_742
*762 FILLER_0_749
*763 FILLER_0_756
*764 FILLER_0_763
*765 FILLER_0_77
*766 FILLER_0_770
*767 FILLER_0_777
*768 FILLER_0_784
*769 FILLER_0_791
*770 FILLER_0_798
*771 FILLER_0_805
*772 FILLER_0_812
*773 FILLER_0_819
*774 FILLER_0_826
*775 FILLER_0_833
*776 FILLER_0_84
*777 FILLER_0_840
*778 FILLER_0_847
*779 FILLER_0_854
*780 FILLER_0_861
*781 FILLER_0_868
*782 FILLER_0_875
*783 FILLER_0_882
*784 FILLER_0_889
*785 FILLER_0_896
*786 FILLER_0_903
*787 FILLER_0_91
*788 FILLER_0_910
*789 FILLER_0_917
*790 FILLER_0_924
*791 FILLER_0_931
*792 FILLER_0_938
*793 FILLER_0_945
*794 FILLER_0_952
*795 FILLER_0_959
*796 FILLER_0_966
*797 FILLER_0_973
*798 FILLER_0_98
*799 FILLER_0_980
*800 FILLER_0_987
*801 FILLER_0_994
*802 FILLER_10_1005
*803 FILLER_10_1012
*804 FILLER_10_1019
*805 FILLER_10_1026
*806 FILLER_10_1028
*807 FILLER_10_11
*808 FILLER_10_124
*809 FILLER_10_13
*810 FILLER_10_131
*811 FILLER_10_138
*812 FILLER_10_145
*813 FILLER_10_152
*814 FILLER_10_159
*815 FILLER_10_166
*816 FILLER_10_173
*817 FILLER_10_180
*818 FILLER_10_184
*819 FILLER_10_203
*820 FILLER_10_210
*821 FILLER_10_227
*822 FILLER_10_234
*823 FILLER_10_241
*824 FILLER_10_248
*825 FILLER_10_255
*826 FILLER_10_267
*827 FILLER_10_274
*828 FILLER_10_281
*829 FILLER_10_288
*830 FILLER_10_301
*831 FILLER_10_305
*832 FILLER_10_310
*833 FILLER_10_317
*834 FILLER_10_324
*835 FILLER_10_331
*836 FILLER_10_338
*837 FILLER_10_345
*838 FILLER_10_352
*839 FILLER_10_359
*840 FILLER_10_366
*841 FILLER_10_373
*842 FILLER_10_380
*843 FILLER_10_387
*844 FILLER_10_391
*845 FILLER_10_4
*846 FILLER_10_402
*847 FILLER_10_404
*848 FILLER_10_41
*849 FILLER_10_414
*850 FILLER_10_424
*851 FILLER_10_431
*852 FILLER_10_438
*853 FILLER_10_445
*854 FILLER_10_452
*855 FILLER_10_459
*856 FILLER_10_466
*857 FILLER_10_494
*858 FILLER_10_501
*859 FILLER_10_508
*860 FILLER_10_515
*861 FILLER_10_522
*862 FILLER_10_529
*863 FILLER_10_536
*864 FILLER_10_543
*865 FILLER_10_550
*866 FILLER_10_557
*867 FILLER_10_564
*868 FILLER_10_571
*869 FILLER_10_578
*870 FILLER_10_585
*871 FILLER_10_592
*872 FILLER_10_599
*873 FILLER_10_606
*874 FILLER_10_613
*875 FILLER_10_620
*876 FILLER_10_627
*877 FILLER_10_634
*878 FILLER_10_641
*879 FILLER_10_648
*880 FILLER_10_655
*881 FILLER_10_662
*882 FILLER_10_669
*883 FILLER_10_676
*884 FILLER_10_683
*885 FILLER_10_690
*886 FILLER_10_697
*887 FILLER_10_704
*888 FILLER_10_711
*889 FILLER_10_718
*890 FILLER_10_725
*891 FILLER_10_732
*892 FILLER_10_739
*893 FILLER_10_746
*894 FILLER_10_753
*895 FILLER_10_760
*896 FILLER_10_767
*897 FILLER_10_774
*898 FILLER_10_781
*899 FILLER_10_788
*900 FILLER_10_795
*901 FILLER_10_802
*902 FILLER_10_809
*903 FILLER_10_816
*904 FILLER_10_823
*905 FILLER_10_830
*906 FILLER_10_837
*907 FILLER_10_844
*908 FILLER_10_851
*909 FILLER_10_858
*910 FILLER_10_865
*911 FILLER_10_872
*912 FILLER_10_879
*913 FILLER_10_886
*914 FILLER_10_893
*915 FILLER_10_900
*916 FILLER_10_907
*917 FILLER_10_914
*918 FILLER_10_921
*919 FILLER_10_928
*920 FILLER_10_935
*921 FILLER_10_942
*922 FILLER_10_949
*923 FILLER_10_956
*924 FILLER_10_963
*925 FILLER_10_970
*926 FILLER_10_977
*927 FILLER_10_984
*928 FILLER_10_991
*929 FILLER_10_998
*930 FILLER_11_1005
*931 FILLER_11_1012
*932 FILLER_11_1019
*933 FILLER_11_1026
*934 FILLER_11_1028
*935 FILLER_11_106
*936 FILLER_11_11
*937 FILLER_11_113
*938 FILLER_11_144
*939 FILLER_11_151
*940 FILLER_11_158
*941 FILLER_11_18
*942 FILLER_11_186
*943 FILLER_11_188
*944 FILLER_11_202
*945 FILLER_11_209
*946 FILLER_11_216
*947 FILLER_11_223
*948 FILLER_11_230
*949 FILLER_11_237
*950 FILLER_11_244
*951 FILLER_11_251
*952 FILLER_11_276
*953 FILLER_11_283
*954 FILLER_11_290
*955 FILLER_11_297
*956 FILLER_11_304
*957 FILLER_11_311
*958 FILLER_11_318
*959 FILLER_11_325
*960 FILLER_11_332
*961 FILLER_11_339
*962 FILLER_11_346
*963 FILLER_11_353
*964 FILLER_11_360
*965 FILLER_11_367
*966 FILLER_11_374
*967 FILLER_11_381
*968 FILLER_11_388
*969 FILLER_11_395
*970 FILLER_11_4
*971 FILLER_11_428
*972 FILLER_11_435
*973 FILLER_11_442
*974 FILLER_11_449
*975 FILLER_11_456
*976 FILLER_11_463
*977 FILLER_11_470
*978 FILLER_11_477
*979 FILLER_11_501
*980 FILLER_11_508
*981 FILLER_11_515
*982 FILLER_11_522
*983 FILLER_11_526
*984 FILLER_11_53
*985 FILLER_11_541
*986 FILLER_11_543
*987 FILLER_11_549
*988 FILLER_11_556
*989 FILLER_11_563
*990 FILLER_11_592
*991 FILLER_11_599
*992 FILLER_11_60
*993 FILLER_11_606
*994 FILLER_11_613
*995 FILLER_11_620
*996 FILLER_11_627
*997 FILLER_11_634
*998 FILLER_11_641
*999 FILLER_11_648
*1000 FILLER_11_655
*1001 FILLER_11_662
*1002 FILLER_11_669
*1003 FILLER_11_67
*1004 FILLER_11_676
*1005 FILLER_11_683
*1006 FILLER_11_69
*1007 FILLER_11_690
*1008 FILLER_11_697
*1009 FILLER_11_704
*1010 FILLER_11_711
*1011 FILLER_11_718
*1012 FILLER_11_725
*1013 FILLER_11_732
*1014 FILLER_11_739
*1015 FILLER_11_746
*1016 FILLER_11_753
*1017 FILLER_11_760
*1018 FILLER_11_767
*1019 FILLER_11_774
*1020 FILLER_11_781
*1021 FILLER_11_788
*1022 FILLER_11_79
*1023 FILLER_11_795
*1024 FILLER_11_802
*1025 FILLER_11_809
*1026 FILLER_11_816
*1027 FILLER_11_823
*1028 FILLER_11_830
*1029 FILLER_11_837
*1030 FILLER_11_844
*1031 FILLER_11_851
*1032 FILLER_11_858
*1033 FILLER_11_86
*1034 FILLER_11_865
*1035 FILLER_11_872
*1036 FILLER_11_879
*1037 FILLER_11_886
*1038 FILLER_11_893
*1039 FILLER_11_900
*1040 FILLER_11_907
*1041 FILLER_11_914
*1042 FILLER_11_921
*1043 FILLER_11_928
*1044 FILLER_11_93
*1045 FILLER_11_935
*1046 FILLER_11_942
*1047 FILLER_11_949
*1048 FILLER_11_956
*1049 FILLER_11_963
*1050 FILLER_11_970
*1051 FILLER_11_977
*1052 FILLER_11_984
*1053 FILLER_11_991
*1054 FILLER_11_998
*1055 FILLER_12_1005
*1056 FILLER_12_1012
*1057 FILLER_12_1019
*1058 FILLER_12_1026
*1059 FILLER_12_1028
*1060 FILLER_12_104
*1061 FILLER_12_11
*1062 FILLER_12_111
*1063 FILLER_12_118
*1064 FILLER_12_120
*1065 FILLER_12_130
*1066 FILLER_12_137
*1067 FILLER_12_144
*1068 FILLER_12_151
*1069 FILLER_12_158
*1070 FILLER_12_168
*1071 FILLER_12_175
*1072 FILLER_12_18
*1073 FILLER_12_182
*1074 FILLER_12_189
*1075 FILLER_12_218
*1076 FILLER_12_225
*1077 FILLER_12_232
*1078 FILLER_12_239
*1079 FILLER_12_246
*1080 FILLER_12_25
*1081 FILLER_12_253
*1082 FILLER_12_257
*1083 FILLER_12_266
*1084 FILLER_12_27
*1085 FILLER_12_273
*1086 FILLER_12_280
*1087 FILLER_12_287
*1088 FILLER_12_294
*1089 FILLER_12_301
*1090 FILLER_12_308
*1091 FILLER_12_315
*1092 FILLER_12_344
*1093 FILLER_12_351
*1094 FILLER_12_358
*1095 FILLER_12_365
*1096 FILLER_12_372
*1097 FILLER_12_379
*1098 FILLER_12_386
*1099 FILLER_12_4
*1100 FILLER_12_41
*1101 FILLER_12_420
*1102 FILLER_12_427
*1103 FILLER_12_434
*1104 FILLER_12_441
*1105 FILLER_12_448
*1106 FILLER_12_452
*1107 FILLER_12_48
*1108 FILLER_12_480
*1109 FILLER_12_503
*1110 FILLER_12_510
*1111 FILLER_12_519
*1112 FILLER_12_526
*1113 FILLER_12_55
*1114 FILLER_12_570
*1115 FILLER_12_576
*1116 FILLER_12_592
*1117 FILLER_12_599
*1118 FILLER_12_606
*1119 FILLER_12_613
*1120 FILLER_12_62
*1121 FILLER_12_620
*1122 FILLER_12_627
*1123 FILLER_12_634
*1124 FILLER_12_641
*1125 FILLER_12_648
*1126 FILLER_12_655
*1127 FILLER_12_662
*1128 FILLER_12_669
*1129 FILLER_12_676
*1130 FILLER_12_683
*1131 FILLER_12_69
*1132 FILLER_12_690
*1133 FILLER_12_697
*1134 FILLER_12_704
*1135 FILLER_12_711
*1136 FILLER_12_718
*1137 FILLER_12_725
*1138 FILLER_12_732
*1139 FILLER_12_739
*1140 FILLER_12_746
*1141 FILLER_12_753
*1142 FILLER_12_76
*1143 FILLER_12_760
*1144 FILLER_12_767
*1145 FILLER_12_774
*1146 FILLER_12_781
*1147 FILLER_12_788
*1148 FILLER_12_795
*1149 FILLER_12_802
*1150 FILLER_12_809
*1151 FILLER_12_816
*1152 FILLER_12_823
*1153 FILLER_12_83
*1154 FILLER_12_830
*1155 FILLER_12_837
*1156 FILLER_12_844
*1157 FILLER_12_851
*1158 FILLER_12_858
*1159 FILLER_12_865
*1160 FILLER_12_872
*1161 FILLER_12_879
*1162 FILLER_12_886
*1163 FILLER_12_893
*1164 FILLER_12_90
*1165 FILLER_12_900
*1166 FILLER_12_907
*1167 FILLER_12_914
*1168 FILLER_12_921
*1169 FILLER_12_928
*1170 FILLER_12_935
*1171 FILLER_12_942
*1172 FILLER_12_949
*1173 FILLER_12_956
*1174 FILLER_12_963
*1175 FILLER_12_97
*1176 FILLER_12_970
*1177 FILLER_12_977
*1178 FILLER_12_984
*1179 FILLER_12_991
*1180 FILLER_12_998
*1181 FILLER_13_1005
*1182 FILLER_13_1012
*1183 FILLER_13_1019
*1184 FILLER_13_102
*1185 FILLER_13_1026
*1186 FILLER_13_1028
*1187 FILLER_13_109
*1188 FILLER_13_11
*1189 FILLER_13_116
*1190 FILLER_13_123
*1191 FILLER_13_130
*1192 FILLER_13_137
*1193 FILLER_13_144
*1194 FILLER_13_151
*1195 FILLER_13_158
*1196 FILLER_13_168
*1197 FILLER_13_175
*1198 FILLER_13_18
*1199 FILLER_13_182
*1200 FILLER_13_189
*1201 FILLER_13_196
*1202 FILLER_13_203
*1203 FILLER_13_210
*1204 FILLER_13_217
*1205 FILLER_13_224
*1206 FILLER_13_231
*1207 FILLER_13_25
*1208 FILLER_13_260
*1209 FILLER_13_267
*1210 FILLER_13_274
*1211 FILLER_13_281
*1212 FILLER_13_288
*1213 FILLER_13_295
*1214 FILLER_13_302
*1215 FILLER_13_309
*1216 FILLER_13_316
*1217 FILLER_13_32
*1218 FILLER_13_327
*1219 FILLER_13_334
*1220 FILLER_13_344
*1221 FILLER_13_351
*1222 FILLER_13_358
*1223 FILLER_13_365
*1224 FILLER_13_382
*1225 FILLER_13_389
*1226 FILLER_13_39
*1227 FILLER_13_396
*1228 FILLER_13_4
*1229 FILLER_13_403
*1230 FILLER_13_407
*1231 FILLER_13_418
*1232 FILLER_13_425
*1233 FILLER_13_432
*1234 FILLER_13_439
*1235 FILLER_13_446
*1236 FILLER_13_46
*1237 FILLER_13_464
*1238 FILLER_13_471
*1239 FILLER_13_478
*1240 FILLER_13_485
*1241 FILLER_13_492
*1242 FILLER_13_499
*1243 FILLER_13_506
*1244 FILLER_13_513
*1245 FILLER_13_520
*1246 FILLER_13_527
*1247 FILLER_13_53
*1248 FILLER_13_534
*1249 FILLER_13_541
*1250 FILLER_13_548
*1251 FILLER_13_552
*1252 FILLER_13_558
*1253 FILLER_13_562
*1254 FILLER_13_572
*1255 FILLER_13_578
*1256 FILLER_13_585
*1257 FILLER_13_592
*1258 FILLER_13_599
*1259 FILLER_13_60
*1260 FILLER_13_606
*1261 FILLER_13_613
*1262 FILLER_13_620
*1263 FILLER_13_627
*1264 FILLER_13_634
*1265 FILLER_13_641
*1266 FILLER_13_648
*1267 FILLER_13_655
*1268 FILLER_13_662
*1269 FILLER_13_669
*1270 FILLER_13_67
*1271 FILLER_13_676
*1272 FILLER_13_683
*1273 FILLER_13_690
*1274 FILLER_13_697
*1275 FILLER_13_704
*1276 FILLER_13_711
*1277 FILLER_13_718
*1278 FILLER_13_725
*1279 FILLER_13_732
*1280 FILLER_13_739
*1281 FILLER_13_74
*1282 FILLER_13_746
*1283 FILLER_13_753
*1284 FILLER_13_760
*1285 FILLER_13_767
*1286 FILLER_13_774
*1287 FILLER_13_781
*1288 FILLER_13_788
*1289 FILLER_13_795
*1290 FILLER_13_802
*1291 FILLER_13_809
*1292 FILLER_13_81
*1293 FILLER_13_816
*1294 FILLER_13_823
*1295 FILLER_13_830
*1296 FILLER_13_837
*1297 FILLER_13_844
*1298 FILLER_13_851
*1299 FILLER_13_858
*1300 FILLER_13_865
*1301 FILLER_13_872
*1302 FILLER_13_879
*1303 FILLER_13_88
*1304 FILLER_13_886
*1305 FILLER_13_893
*1306 FILLER_13_900
*1307 FILLER_13_907
*1308 FILLER_13_914
*1309 FILLER_13_921
*1310 FILLER_13_928
*1311 FILLER_13_935
*1312 FILLER_13_942
*1313 FILLER_13_949
*1314 FILLER_13_95
*1315 FILLER_13_956
*1316 FILLER_13_963
*1317 FILLER_13_970
*1318 FILLER_13_977
*1319 FILLER_13_984
*1320 FILLER_13_991
*1321 FILLER_13_998
*1322 FILLER_14_1001
*1323 FILLER_14_1008
*1324 FILLER_14_1015
*1325 FILLER_14_1022
*1326 FILLER_14_104
*1327 FILLER_14_11
*1328 FILLER_14_111
*1329 FILLER_14_118
*1330 FILLER_14_125
*1331 FILLER_14_132
*1332 FILLER_14_139
*1333 FILLER_14_146
*1334 FILLER_14_153
*1335 FILLER_14_169
*1336 FILLER_14_171
*1337 FILLER_14_176
*1338 FILLER_14_18
*1339 FILLER_14_183
*1340 FILLER_14_187
*1341 FILLER_14_202
*1342 FILLER_14_209
*1343 FILLER_14_216
*1344 FILLER_14_223
*1345 FILLER_14_230
*1346 FILLER_14_237
*1347 FILLER_14_244
*1348 FILLER_14_25
*1349 FILLER_14_251
*1350 FILLER_14_258
*1351 FILLER_14_265
*1352 FILLER_14_272
*1353 FILLER_14_279
*1354 FILLER_14_286
*1355 FILLER_14_293
*1356 FILLER_14_300
*1357 FILLER_14_307
*1358 FILLER_14_31
*1359 FILLER_14_314
*1360 FILLER_14_33
*1361 FILLER_14_349
*1362 FILLER_14_356
*1363 FILLER_14_363
*1364 FILLER_14_370
*1365 FILLER_14_377
*1366 FILLER_14_384
*1367 FILLER_14_391
*1368 FILLER_14_398
*1369 FILLER_14_4
*1370 FILLER_14_405
*1371 FILLER_14_412
*1372 FILLER_14_416
*1373 FILLER_14_426
*1374 FILLER_14_433
*1375 FILLER_14_440
*1376 FILLER_14_447
*1377 FILLER_14_454
*1378 FILLER_14_461
*1379 FILLER_14_468
*1380 FILLER_14_475
*1381 FILLER_14_479
*1382 FILLER_14_490
*1383 FILLER_14_497
*1384 FILLER_14_504
*1385 FILLER_14_511
*1386 FILLER_14_518
*1387 FILLER_14_525
*1388 FILLER_14_532
*1389 FILLER_14_539
*1390 FILLER_14_546
*1391 FILLER_14_55
*1392 FILLER_14_553
*1393 FILLER_14_560
*1394 FILLER_14_567
*1395 FILLER_14_574
*1396 FILLER_14_581
*1397 FILLER_14_588
*1398 FILLER_14_595
*1399 FILLER_14_602
*1400 FILLER_14_609
*1401 FILLER_14_616
*1402 FILLER_14_62
*1403 FILLER_14_623
*1404 FILLER_14_630
*1405 FILLER_14_637
*1406 FILLER_14_644
*1407 FILLER_14_651
*1408 FILLER_14_658
*1409 FILLER_14_665
*1410 FILLER_14_672
*1411 FILLER_14_679
*1412 FILLER_14_686
*1413 FILLER_14_69
*1414 FILLER_14_693
*1415 FILLER_14_700
*1416 FILLER_14_707
*1417 FILLER_14_714
*1418 FILLER_14_721
*1419 FILLER_14_728
*1420 FILLER_14_735
*1421 FILLER_14_742
*1422 FILLER_14_749
*1423 FILLER_14_756
*1424 FILLER_14_76
*1425 FILLER_14_763
*1426 FILLER_14_770
*1427 FILLER_14_777
*1428 FILLER_14_784
*1429 FILLER_14_791
*1430 FILLER_14_798
*1431 FILLER_14_805
*1432 FILLER_14_812
*1433 FILLER_14_819
*1434 FILLER_14_826
*1435 FILLER_14_83
*1436 FILLER_14_833
*1437 FILLER_14_840
*1438 FILLER_14_847
*1439 FILLER_14_854
*1440 FILLER_14_861
*1441 FILLER_14_868
*1442 FILLER_14_875
*1443 FILLER_14_882
*1444 FILLER_14_889
*1445 FILLER_14_896
*1446 FILLER_14_90
*1447 FILLER_14_903
*1448 FILLER_14_910
*1449 FILLER_14_917
*1450 FILLER_14_924
*1451 FILLER_14_931
*1452 FILLER_14_938
*1453 FILLER_14_945
*1454 FILLER_14_952
*1455 FILLER_14_959
*1456 FILLER_14_966
*1457 FILLER_14_97
*1458 FILLER_14_973
*1459 FILLER_14_980
*1460 FILLER_14_987
*1461 FILLER_14_994
*1462 FILLER_15_1002
*1463 FILLER_15_1009
*1464 FILLER_15_1016
*1465 FILLER_15_1023
*1466 FILLER_15_1027
*1467 FILLER_15_11
*1468 FILLER_15_119
*1469 FILLER_15_126
*1470 FILLER_15_133
*1471 FILLER_15_140
*1472 FILLER_15_147
*1473 FILLER_15_15
*1474 FILLER_15_154
*1475 FILLER_15_161
*1476 FILLER_15_168
*1477 FILLER_15_175
*1478 FILLER_15_182
*1479 FILLER_15_205
*1480 FILLER_15_212
*1481 FILLER_15_214
*1482 FILLER_15_224
*1483 FILLER_15_231
*1484 FILLER_15_238
*1485 FILLER_15_245
*1486 FILLER_15_252
*1487 FILLER_15_259
*1488 FILLER_15_266
*1489 FILLER_15_273
*1490 FILLER_15_280
*1491 FILLER_15_308
*1492 FILLER_15_315
*1493 FILLER_15_322
*1494 FILLER_15_326
*1495 FILLER_15_331
*1496 FILLER_15_354
*1497 FILLER_15_361
*1498 FILLER_15_368
*1499 FILLER_15_375
*1500 FILLER_15_382
*1501 FILLER_15_389
*1502 FILLER_15_396
*1503 FILLER_15_4
*1504 FILLER_15_403
*1505 FILLER_15_410
*1506 FILLER_15_417
*1507 FILLER_15_424
*1508 FILLER_15_431
*1509 FILLER_15_438
*1510 FILLER_15_445
*1511 FILLER_15_452
*1512 FILLER_15_459
*1513 FILLER_15_466
*1514 FILLER_15_47
*1515 FILLER_15_473
*1516 FILLER_15_480
*1517 FILLER_15_487
*1518 FILLER_15_494
*1519 FILLER_15_501
*1520 FILLER_15_508
*1521 FILLER_15_515
*1522 FILLER_15_522
*1523 FILLER_15_529
*1524 FILLER_15_536
*1525 FILLER_15_54
*1526 FILLER_15_543
*1527 FILLER_15_550
*1528 FILLER_15_557
*1529 FILLER_15_564
*1530 FILLER_15_570
*1531 FILLER_15_577
*1532 FILLER_15_587
*1533 FILLER_15_603
*1534 FILLER_15_610
*1535 FILLER_15_617
*1536 FILLER_15_624
*1537 FILLER_15_631
*1538 FILLER_15_638
*1539 FILLER_15_645
*1540 FILLER_15_652
*1541 FILLER_15_659
*1542 FILLER_15_666
*1543 FILLER_15_673
*1544 FILLER_15_680
*1545 FILLER_15_687
*1546 FILLER_15_694
*1547 FILLER_15_701
*1548 FILLER_15_708
*1549 FILLER_15_715
*1550 FILLER_15_722
*1551 FILLER_15_729
*1552 FILLER_15_736
*1553 FILLER_15_743
*1554 FILLER_15_750
*1555 FILLER_15_757
*1556 FILLER_15_764
*1557 FILLER_15_771
*1558 FILLER_15_778
*1559 FILLER_15_785
*1560 FILLER_15_792
*1561 FILLER_15_799
*1562 FILLER_15_806
*1563 FILLER_15_813
*1564 FILLER_15_820
*1565 FILLER_15_827
*1566 FILLER_15_834
*1567 FILLER_15_841
*1568 FILLER_15_848
*1569 FILLER_15_85
*1570 FILLER_15_855
*1571 FILLER_15_862
*1572 FILLER_15_869
*1573 FILLER_15_876
*1574 FILLER_15_883
*1575 FILLER_15_890
*1576 FILLER_15_897
*1577 FILLER_15_904
*1578 FILLER_15_911
*1579 FILLER_15_918
*1580 FILLER_15_925
*1581 FILLER_15_932
*1582 FILLER_15_939
*1583 FILLER_15_946
*1584 FILLER_15_953
*1585 FILLER_15_960
*1586 FILLER_15_967
*1587 FILLER_15_974
*1588 FILLER_15_981
*1589 FILLER_15_988
*1590 FILLER_15_995
*1591 FILLER_16_1005
*1592 FILLER_16_1012
*1593 FILLER_16_1019
*1594 FILLER_16_1026
*1595 FILLER_16_1028
*1596 FILLER_16_11
*1597 FILLER_16_118
*1598 FILLER_16_120
*1599 FILLER_16_148
*1600 FILLER_16_155
*1601 FILLER_16_162
*1602 FILLER_16_169
*1603 FILLER_16_176
*1604 FILLER_16_183
*1605 FILLER_16_185
*1606 FILLER_16_194
*1607 FILLER_16_208
*1608 FILLER_16_215
*1609 FILLER_16_222
*1610 FILLER_16_269
*1611 FILLER_16_276
*1612 FILLER_16_283
*1613 FILLER_16_287
*1614 FILLER_16_293
*1615 FILLER_16_298
*1616 FILLER_16_317
*1617 FILLER_16_324
*1618 FILLER_16_328
*1619 FILLER_16_334
*1620 FILLER_16_341
*1621 FILLER_16_348
*1622 FILLER_16_355
*1623 FILLER_16_362
*1624 FILLER_16_369
*1625 FILLER_16_376
*1626 FILLER_16_380
*1627 FILLER_16_4
*1628 FILLER_16_416
*1629 FILLER_16_42
*1630 FILLER_16_423
*1631 FILLER_16_452
*1632 FILLER_16_459
*1633 FILLER_16_466
*1634 FILLER_16_470
*1635 FILLER_16_49
*1636 FILLER_16_499
*1637 FILLER_16_506
*1638 FILLER_16_520
*1639 FILLER_16_527
*1640 FILLER_16_531
*1641 FILLER_16_56
*1642 FILLER_16_560
*1643 FILLER_16_574
*1644 FILLER_16_578
*1645 FILLER_16_606
*1646 FILLER_16_613
*1647 FILLER_16_620
*1648 FILLER_16_627
*1649 FILLER_16_63