* NGSPICE file created from heichips25_template.ext - technology: ihp-sg13g2

* Black-box entry subcircuit for sg13g2_fill_2 abstract view
.subckt sg13g2_fill_2 VDD VSS
.ends

* Black-box entry subcircuit for sg13g2_decap_8 abstract view
.subckt sg13g2_decap_8 VDD VSS
.ends

* Black-box entry subcircuit for sg13g2_dfrbpq_1 abstract view
.subckt sg13g2_dfrbpq_1 RESET_B VSS VDD D Q CLK
.ends

* Black-box entry subcircuit for sg13g2_nand2_1 abstract view
.subckt sg13g2_nand2_1 Y A B VDD VSS
.ends

* Black-box entry subcircuit for sg13g2_fill_1 abstract view
.subckt sg13g2_fill_1 VDD VSS
.ends

* Black-box entry subcircuit for sg13g2_and2_1 abstract view
.subckt sg13g2_and2_1 A B X VDD VSS
.ends

* Black-box entry subcircuit for sg13g2_nor2_1 abstract view
.subckt sg13g2_nor2_1 A B Y VDD VSS
.ends

* Black-box entry subcircuit for sg13g2_decap_4 abstract view
.subckt sg13g2_decap_4 VDD VSS
.ends

* Black-box entry subcircuit for sg13g2_o21ai_1 abstract view
.subckt sg13g2_o21ai_1 B1 VDD Y VSS A1 A2
.ends

* Black-box entry subcircuit for sg13g2_nand3_1 abstract view
.subckt sg13g2_nand3_1 B C A Y VDD VSS
.ends

* Black-box entry subcircuit for sg13g2_dlygate4sd3_1 abstract view
.subckt sg13g2_dlygate4sd3_1 A VDD VSS X
.ends

* Black-box entry subcircuit for sg13g2_or2_1 abstract view
.subckt sg13g2_or2_1 VSS VDD X B A
.ends

* Black-box entry subcircuit for sg13g2_xor2_1 abstract view
.subckt sg13g2_xor2_1 B A X VDD VSS
.ends

* Black-box entry subcircuit for sg13g2_a22oi_1 abstract view
.subckt sg13g2_a22oi_1 Y B1 B2 A2 A1 VDD VSS
.ends

* Black-box entry subcircuit for sg13g2_buf_8 abstract view
.subckt sg13g2_buf_8 A X VDD VSS
.ends

* Black-box entry subcircuit for sg13g2_xnor2_1 abstract view
.subckt sg13g2_xnor2_1 Y A B VDD VSS
.ends

* Black-box entry subcircuit for sg13g2_nor2b_1 abstract view
.subckt sg13g2_nor2b_1 A B_N Y VDD VSS
.ends

* Black-box entry subcircuit for sg13g2_a21o_1 abstract view
.subckt sg13g2_a21o_1 A2 A1 B1 X VDD VSS
.ends

* Black-box entry subcircuit for sg13g2_buf_1 abstract view
.subckt sg13g2_buf_1 A X VDD VSS
.ends

* Black-box entry subcircuit for sg13g2_dfrbpq_2 abstract view
.subckt sg13g2_dfrbpq_2 RESET_B VSS VDD D Q CLK
.ends

* Black-box entry subcircuit for sg13g2_or3_1 abstract view
.subckt sg13g2_or3_1 A B C X VDD VSS
.ends

* Black-box entry subcircuit for sg13g2_a21oi_1 abstract view
.subckt sg13g2_a21oi_1 VSS VDD A1 A2 Y B1
.ends

* Black-box entry subcircuit for sg13g2_a21o_2 abstract view
.subckt sg13g2_a21o_2 A2 A1 B1 X VDD VSS
.ends

* Black-box entry subcircuit for sg13g2_nand4_1 abstract view
.subckt sg13g2_nand4_1 B C A Y VDD VSS D
.ends

* Black-box entry subcircuit for sg13g2_nand2_2 abstract view
.subckt sg13g2_nand2_2 Y A B VDD VSS
.ends

* Black-box entry subcircuit for sg13g2_and4_1 abstract view
.subckt sg13g2_and4_1 A B C D X VDD VSS
.ends

* Black-box entry subcircuit for sg13g2_nand2b_1 abstract view
.subckt sg13g2_nand2b_1 Y B A_N VDD VSS
.ends

* Black-box entry subcircuit for sg13g2_tiehi abstract view
.subckt sg13g2_tiehi VDD VSS L_HI
.ends

* Black-box entry subcircuit for sg13g2_and3_1 abstract view
.subckt sg13g2_and3_1 X A B C VDD VSS
.ends

* Black-box entry subcircuit for sg13g2_buf_2 abstract view
.subckt sg13g2_buf_2 A X VDD VSS
.ends

* Black-box entry subcircuit for sg13g2_and3_2 abstract view
.subckt sg13g2_and3_2 X A B C VDD VSS
.ends

* Black-box entry subcircuit for sg13g2_nor3_1 abstract view
.subckt sg13g2_nor3_1 A B C Y VDD VSS
.ends

* Black-box entry subcircuit for sg13g2_nand3b_1 abstract view
.subckt sg13g2_nand3b_1 B C Y VDD VSS A_N
.ends

* Black-box entry subcircuit for sg13g2_inv_1 abstract view
.subckt sg13g2_inv_1 VDD Y A VSS
.ends

* Black-box entry subcircuit for sg13g2_mux2_1 abstract view
.subckt sg13g2_mux2_1 A0 A1 S X VDD VSS
.ends

* Black-box entry subcircuit for sg13g2_inv_2 abstract view
.subckt sg13g2_inv_2 Y A VDD VSS
.ends

* Black-box entry subcircuit for sg13g2_inv_8 abstract view
.subckt sg13g2_inv_8 Y A VDD VSS
.ends

* Black-box entry subcircuit for sg13g2_nand2b_2 abstract view
.subckt sg13g2_nand2b_2 Y B VDD VSS A_N
.ends

* Black-box entry subcircuit for sg13g2_inv_4 abstract view
.subckt sg13g2_inv_4 A Y VDD VSS
.ends

* Black-box entry subcircuit for sg13g2_a21oi_2 abstract view
.subckt sg13g2_a21oi_2 VSS VDD B1 Y A2 A1
.ends

* Black-box entry subcircuit for sg13g2_a221oi_1 abstract view
.subckt sg13g2_a221oi_1 VDD VSS B2 C1 B1 A1 Y A2
.ends

* Black-box entry subcircuit for sg13g2_nor4_1 abstract view
.subckt sg13g2_nor4_1 A B C D Y VDD VSS
.ends

* Black-box entry subcircuit for sg13g2_nor2b_2 abstract view
.subckt sg13g2_nor2b_2 A B_N Y VDD VSS
.ends

* Black-box entry subcircuit for sg13g2_nor3_2 abstract view
.subckt sg13g2_nor3_2 A B C Y VDD VSS
.ends

.subckt heichips25_template VGND VPWR clk ena rst_n ui_in[0] ui_in[1] ui_in[2] ui_in[3]
+ ui_in[4] ui_in[5] ui_in[6] ui_in[7] uio_in[0] uio_in[1] uio_in[2] uio_in[3] uio_in[4]
+ uio_in[5] uio_in[6] uio_in[7] uio_oe[0] uio_oe[1] uio_oe[2] uio_oe[3] uio_oe[4]
+ uio_oe[5] uio_oe[6] uio_oe[7] uio_out[0] uio_out[1] uio_out[2] uio_out[3] uio_out[4]
+ uio_out[5] uio_out[6] uio_out[7] uo_out[0] uo_out[1] uo_out[2] uo_out[3] uo_out[4]
+ uo_out[5] uo_out[6] uo_out[7]
XFILLER_39_222 VPWR VGND sg13g2_fill_2
XFILLER_39_244 VPWR VGND sg13g2_decap_8
X_3155_ net540 VGND VPWR net103 mac1.sum_lvl2_ff\[10\] clknet_leaf_19_clk sg13g2_dfrbpq_1
X_3086_ net526 VGND VPWR _0069_ mac1.products_ff\[73\] clknet_leaf_26_clk sg13g2_dfrbpq_1
X_2106_ _1390_ net450 net390 VPWR VGND sg13g2_nand2_1
XFILLER_39_288 VPWR VGND sg13g2_fill_1
X_2037_ _1328_ _1329_ _0019_ VPWR VGND sg13g2_and2_1
XFILLER_36_984 VPWR VGND sg13g2_decap_8
XFILLER_10_317 VPWR VGND sg13g2_decap_8
XFILLER_23_667 VPWR VGND sg13g2_decap_8
XFILLER_22_188 VPWR VGND sg13g2_decap_8
X_2939_ net485 net371 _0823_ VPWR VGND sg13g2_nor2_1
XFILLER_7_7 VPWR VGND sg13g2_decap_4
XFILLER_46_715 VPWR VGND sg13g2_fill_1
XFILLER_19_929 VPWR VGND sg13g2_decap_8
XFILLER_46_737 VPWR VGND sg13g2_decap_8
XFILLER_18_428 VPWR VGND sg13g2_decap_8
XFILLER_26_63 VPWR VGND sg13g2_decap_8
XFILLER_27_995 VPWR VGND sg13g2_decap_8
XFILLER_42_965 VPWR VGND sg13g2_decap_8
XFILLER_41_431 VPWR VGND sg13g2_decap_8
XFILLER_14_634 VPWR VGND sg13g2_decap_4
XFILLER_14_678 VPWR VGND sg13g2_fill_2
XFILLER_9_126 VPWR VGND sg13g2_decap_8
XFILLER_6_811 VPWR VGND sg13g2_decap_8
XFILLER_10_873 VPWR VGND sg13g2_decap_8
XFILLER_5_310 VPWR VGND sg13g2_decap_8
XFILLER_6_888 VPWR VGND sg13g2_decap_8
XFILLER_49_520 VPWR VGND sg13g2_decap_8
XFILLER_3_89 VPWR VGND sg13g2_decap_8
XFILLER_3_1018 VPWR VGND sg13g2_decap_8
XFILLER_37_759 VPWR VGND sg13g2_decap_8
XFILLER_18_951 VPWR VGND sg13g2_decap_8
XFILLER_45_781 VPWR VGND sg13g2_fill_1
XFILLER_33_910 VPWR VGND sg13g2_decap_8
XFILLER_33_987 VPWR VGND sg13g2_decap_8
XFILLER_20_626 VPWR VGND sg13g2_decap_4
XFILLER_32_497 VPWR VGND sg13g2_fill_2
XFILLER_20_659 VPWR VGND sg13g2_decap_8
X_2724_ _0620_ net479 net426 VPWR VGND sg13g2_nand2_1
XFILLER_8_170 VPWR VGND sg13g2_fill_1
X_2655_ _0518_ VPWR _0553_ VGND _0509_ _0519_ sg13g2_o21ai_1
X_1606_ _0936_ _0937_ _0927_ _0938_ VPWR VGND sg13g2_nand3_1
X_2586_ _0417_ VPWR _0486_ VGND _0482_ _0484_ sg13g2_o21ai_1
X_1537_ _0871_ net470 net410 VPWR VGND sg13g2_nand2_1
X_3207_ net530 VGND VPWR net110 mac1.sum_lvl1_ff\[86\] clknet_leaf_6_clk sg13g2_dfrbpq_1
X_3138_ net542 VGND VPWR net84 mac1.sum_lvl1_ff\[45\] clknet_leaf_24_clk sg13g2_dfrbpq_1
XFILLER_43_707 VPWR VGND sg13g2_decap_4
XFILLER_43_729 VPWR VGND sg13g2_decap_8
XFILLER_42_206 VPWR VGND sg13g2_decap_4
X_3069_ net548 VGND VPWR _0122_ DP_2.matrix\[40\] clknet_leaf_21_clk sg13g2_dfrbpq_1
XFILLER_23_420 VPWR VGND sg13g2_decap_8
XFILLER_24_943 VPWR VGND sg13g2_decap_8
XFILLER_3_836 VPWR VGND sg13g2_decap_8
Xhold170 DP_1.matrix\[40\] VPWR VGND net210 sg13g2_dlygate4sd3_1
Xhold192 _1330_ VPWR VGND net232 sg13g2_dlygate4sd3_1
Xhold181 DP_2.matrix\[1\] VPWR VGND net221 sg13g2_dlygate4sd3_1
XFILLER_15_921 VPWR VGND sg13g2_decap_8
XFILLER_42_740 VPWR VGND sg13g2_fill_2
XFILLER_14_420 VPWR VGND sg13g2_decap_8
XFILLER_15_998 VPWR VGND sg13g2_decap_8
XFILLER_30_913 VPWR VGND sg13g2_decap_8
XFILLER_14_475 VPWR VGND sg13g2_fill_1
XFILLER_6_685 VPWR VGND sg13g2_decap_8
X_2440_ _0345_ net492 net431 VPWR VGND sg13g2_nand2_1
X_2371_ VGND VPWR _0281_ _0280_ _0268_ sg13g2_or2_1
XFILLER_38_4 VPWR VGND sg13g2_decap_4
XFILLER_49_361 VPWR VGND sg13g2_decap_8
XFILLER_37_556 VPWR VGND sg13g2_decap_8
XFILLER_24_217 VPWR VGND sg13g2_decap_8
XFILLER_32_250 VPWR VGND sg13g2_fill_1
XFILLER_33_773 VPWR VGND sg13g2_decap_8
XFILLER_21_924 VPWR VGND sg13g2_decap_8
XFILLER_20_478 VPWR VGND sg13g2_decap_8
X_2707_ _0603_ _0591_ _0604_ VPWR VGND sg13g2_xor2_1
X_2638_ _0537_ _0535_ _0536_ VPWR VGND sg13g2_nand2_1
X_2569_ _0469_ net434 net479 net477 net438 VPWR VGND sg13g2_a22oi_1
XFILLER_0_839 VPWR VGND sg13g2_decap_8
XFILLER_28_523 VPWR VGND sg13g2_fill_1
XFILLER_16_707 VPWR VGND sg13g2_decap_8
XFILLER_43_504 VPWR VGND sg13g2_decap_8
XFILLER_16_718 VPWR VGND sg13g2_fill_1
XFILLER_24_762 VPWR VGND sg13g2_decap_8
XFILLER_24_795 VPWR VGND sg13g2_decap_8
XFILLER_8_928 VPWR VGND sg13g2_decap_8
XFILLER_11_434 VPWR VGND sg13g2_fill_2
XFILLER_12_968 VPWR VGND sg13g2_decap_8
XFILLER_23_64 VPWR VGND sg13g2_decap_4
XFILLER_11_467 VPWR VGND sg13g2_decap_8
XFILLER_23_75 VPWR VGND sg13g2_decap_8
XFILLER_3_633 VPWR VGND sg13g2_decap_8
XFILLER_2_143 VPWR VGND sg13g2_fill_1
XFILLER_2_176 VPWR VGND sg13g2_decap_8
Xfanout480 DP_1.matrix\[6\] net480 VPWR VGND sg13g2_buf_8
Xfanout491 DP_1.matrix\[1\] net491 VPWR VGND sg13g2_buf_8
XFILLER_47_843 VPWR VGND sg13g2_decap_8
XFILLER_46_342 VPWR VGND sg13g2_decap_8
XFILLER_0_35 VPWR VGND sg13g2_decap_8
XFILLER_19_567 VPWR VGND sg13g2_fill_1
XFILLER_34_548 VPWR VGND sg13g2_fill_2
XFILLER_9_11 VPWR VGND sg13g2_decap_4
X_1940_ _1248_ _1251_ net284 _1253_ VPWR VGND sg13g2_nand3_1
X_1871_ _0073_ _1194_ _1195_ VPWR VGND sg13g2_xnor2_1
XFILLER_30_754 VPWR VGND sg13g2_decap_8
XFILLER_30_765 VPWR VGND sg13g2_fill_1
XFILLER_7_994 VPWR VGND sg13g2_decap_8
X_2423_ _0330_ _0320_ _0331_ VPWR VGND sg13g2_nor2b_1
X_2354_ _0250_ _0245_ _0252_ _0264_ VPWR VGND sg13g2_a21o_1
X_2285_ _0196_ _0197_ _0198_ VPWR VGND sg13g2_nor2b_1
XFILLER_38_854 VPWR VGND sg13g2_decap_8
XFILLER_40_507 VPWR VGND sg13g2_decap_8
XFILLER_21_710 VPWR VGND sg13g2_fill_2
XFILLER_21_798 VPWR VGND sg13g2_decap_8
XFILLER_5_909 VPWR VGND sg13g2_decap_8
XFILLER_0_636 VPWR VGND sg13g2_decap_8
XFILLER_47_117 VPWR VGND sg13g2_decap_8
XFILLER_29_854 VPWR VGND sg13g2_decap_4
XFILLER_44_824 VPWR VGND sg13g2_decap_8
XFILLER_18_86 VPWR VGND sg13g2_decap_8
XFILLER_12_721 VPWR VGND sg13g2_decap_8
XFILLER_31_529 VPWR VGND sg13g2_decap_8
XFILLER_11_231 VPWR VGND sg13g2_decap_4
XFILLER_8_725 VPWR VGND sg13g2_decap_8
XFILLER_4_931 VPWR VGND sg13g2_decap_8
XFILLER_3_441 VPWR VGND sg13g2_decap_8
XFILLER_38_106 VPWR VGND sg13g2_fill_2
XFILLER_47_640 VPWR VGND sg13g2_decap_8
X_2070_ _1354_ _1355_ _1356_ VPWR VGND sg13g2_nor2b_1
XFILLER_47_673 VPWR VGND sg13g2_decap_8
XFILLER_47_651 VPWR VGND sg13g2_fill_2
X_2972_ net496 _0083_ VPWR VGND sg13g2_buf_1
X_1923_ mac1.sum_lvl2_ff\[24\] net257 _1239_ VPWR VGND sg13g2_nor2_1
XFILLER_30_573 VPWR VGND sg13g2_fill_1
X_1854_ _1179_ net459 net402 VPWR VGND sg13g2_nand2_1
X_1785_ _1112_ _1111_ _1113_ VPWR VGND sg13g2_nor2b_1
XFILLER_7_791 VPWR VGND sg13g2_decap_8
X_2406_ _0051_ _0313_ _0314_ VPWR VGND sg13g2_xnor2_1
X_2337_ VGND VPWR _0248_ _0247_ _0204_ sg13g2_or2_1
X_2268_ _0135_ VPWR _0181_ VGND _1500_ _0136_ sg13g2_o21ai_1
XFILLER_37_150 VPWR VGND sg13g2_decap_8
X_2199_ _1469_ VPWR _1480_ VGND _1447_ _1470_ sg13g2_o21ai_1
XFILLER_25_301 VPWR VGND sg13g2_decap_8
XFILLER_37_161 VPWR VGND sg13g2_fill_2
XFILLER_37_172 VPWR VGND sg13g2_decap_8
XFILLER_41_805 VPWR VGND sg13g2_fill_1
XFILLER_26_868 VPWR VGND sg13g2_decap_4
XFILLER_5_706 VPWR VGND sg13g2_decap_8
XFILLER_20_32 VPWR VGND sg13g2_decap_8
XFILLER_1_912 VPWR VGND sg13g2_decap_8
XFILLER_20_98 VPWR VGND sg13g2_decap_8
XFILLER_49_916 VPWR VGND sg13g2_decap_8
XFILLER_0_433 VPWR VGND sg13g2_decap_8
XFILLER_1_989 VPWR VGND sg13g2_decap_8
Xhold30 mac1.sum_lvl1_ff\[73\] VPWR VGND net70 sg13g2_dlygate4sd3_1
Xhold41 mac1.products_ff\[76\] VPWR VGND net81 sg13g2_dlygate4sd3_1
Xhold74 mac1.sum_lvl2_ff\[42\] VPWR VGND net114 sg13g2_dlygate4sd3_1
Xhold52 mac1.sum_lvl2_ff\[48\] VPWR VGND net92 sg13g2_dlygate4sd3_1
Xhold63 mac1.sum_lvl1_ff\[10\] VPWR VGND net103 sg13g2_dlygate4sd3_1
Xhold85 mac1.products_ff\[142\] VPWR VGND net125 sg13g2_dlygate4sd3_1
Xhold96 mac1.sum_lvl2_ff\[46\] VPWR VGND net136 sg13g2_dlygate4sd3_1
XFILLER_21_1022 VPWR VGND sg13g2_decap_8
XFILLER_45_51 VPWR VGND sg13g2_decap_8
XFILLER_44_654 VPWR VGND sg13g2_decap_4
XFILLER_17_879 VPWR VGND sg13g2_decap_8
XFILLER_45_95 VPWR VGND sg13g2_decap_8
XFILLER_31_326 VPWR VGND sg13g2_decap_4
XFILLER_31_348 VPWR VGND sg13g2_fill_1
XFILLER_8_544 VPWR VGND sg13g2_decap_8
X_1570_ _0900_ _0901_ _0895_ _0903_ VPWR VGND sg13g2_nand3_1
XFILLER_3_293 VPWR VGND sg13g2_decap_8
X_3240_ net544 VGND VPWR net170 mac1.sum_lvl3_ff\[15\] clknet_leaf_19_clk sg13g2_dfrbpq_2
X_3171_ net540 VGND VPWR net102 mac1.sum_lvl2_ff\[29\] clknet_leaf_23_clk sg13g2_dfrbpq_1
XFILLER_20_4 VPWR VGND sg13g2_decap_8
X_2122_ _1403_ _1404_ _1379_ _1406_ VPWR VGND sg13g2_nand3_1
XFILLER_48_982 VPWR VGND sg13g2_decap_8
XFILLER_26_109 VPWR VGND sg13g2_fill_2
X_2053_ _1339_ _1340_ _0033_ VPWR VGND sg13g2_nor2_1
XFILLER_23_805 VPWR VGND sg13g2_decap_4
XFILLER_34_131 VPWR VGND sg13g2_decap_8
XFILLER_16_890 VPWR VGND sg13g2_decap_8
XFILLER_22_359 VPWR VGND sg13g2_fill_1
X_2955_ _0799_ _0797_ _0833_ VPWR VGND sg13g2_xor2_1
X_2886_ net371 net253 _0776_ VPWR VGND sg13g2_nor2b_1
X_1906_ _1226_ mac1.sum_lvl2_ff\[20\] mac1.sum_lvl2_ff\[1\] VPWR VGND sg13g2_nand2_1
X_1837_ _1161_ _1149_ _1163_ VPWR VGND sg13g2_xor2_1
X_1768_ _1096_ net460 net409 DP_1.matrix\[42\] net407 VPWR VGND sg13g2_a22oi_1
X_1699_ _0954_ _1026_ _1028_ _1029_ VPWR VGND sg13g2_or3_1
XFILLER_39_960 VPWR VGND sg13g2_decap_8
XFILLER_14_849 VPWR VGND sg13g2_decap_8
XFILLER_15_32 VPWR VGND sg13g2_decap_8
XFILLER_26_676 VPWR VGND sg13g2_decap_8
XFILLER_40_178 VPWR VGND sg13g2_decap_8
XFILLER_22_882 VPWR VGND sg13g2_decap_8
XFILLER_31_42 VPWR VGND sg13g2_fill_2
Xoutput31 net31 uo_out[6] VPWR VGND sg13g2_buf_1
Xoutput20 net20 uio_out[3] VPWR VGND sg13g2_buf_1
XFILLER_49_713 VPWR VGND sg13g2_decap_8
XFILLER_0_263 VPWR VGND sg13g2_decap_8
XFILLER_1_786 VPWR VGND sg13g2_decap_8
XFILLER_48_223 VPWR VGND sg13g2_decap_8
XFILLER_45_963 VPWR VGND sg13g2_decap_8
XFILLER_16_142 VPWR VGND sg13g2_fill_2
XFILLER_31_134 VPWR VGND sg13g2_decap_8
XFILLER_32_635 VPWR VGND sg13g2_fill_2
XFILLER_31_145 VPWR VGND sg13g2_fill_2
X_2740_ _0635_ _0628_ _0636_ VPWR VGND sg13g2_nor2b_1
X_2671_ _0569_ _0553_ _0567_ VPWR VGND sg13g2_xnor2_1
XFILLER_9_886 VPWR VGND sg13g2_decap_8
X_1622_ _0951_ _0952_ _0953_ VPWR VGND sg13g2_nor2b_1
X_1553_ _0885_ _0865_ _0046_ VPWR VGND sg13g2_xor2_1
XFILLER_28_1028 VPWR VGND sg13g2_fill_1
X_3223_ net530 VGND VPWR net75 mac1.sum_lvl3_ff\[34\] clknet_leaf_6_clk sg13g2_dfrbpq_1
X_3154_ net540 VGND VPWR net68 mac1.sum_lvl2_ff\[9\] clknet_leaf_23_clk sg13g2_dfrbpq_1
X_3085_ net525 VGND VPWR _0046_ mac1.products_ff\[72\] clknet_leaf_28_clk sg13g2_dfrbpq_1
X_2105_ _1369_ VPWR _1389_ VGND _1367_ _1370_ sg13g2_o21ai_1
XFILLER_39_278 VPWR VGND sg13g2_fill_1
X_2036_ net292 _1325_ _1327_ _1329_ VPWR VGND sg13g2_or3_1
XFILLER_36_963 VPWR VGND sg13g2_decap_8
XFILLER_23_624 VPWR VGND sg13g2_fill_2
XFILLER_22_156 VPWR VGND sg13g2_fill_1
X_2938_ VGND VPWR net372 _0822_ _0089_ _0821_ sg13g2_a21oi_1
XFILLER_11_1010 VPWR VGND sg13g2_decap_8
X_2869_ net463 _0730_ _0759_ VPWR VGND sg13g2_nor2_1
XFILLER_18_407 VPWR VGND sg13g2_decap_8
XFILLER_19_908 VPWR VGND sg13g2_decap_8
XFILLER_45_215 VPWR VGND sg13g2_fill_2
XFILLER_39_790 VPWR VGND sg13g2_fill_2
XFILLER_26_42 VPWR VGND sg13g2_decap_8
XFILLER_27_974 VPWR VGND sg13g2_decap_8
Xclkbuf_3_6__f_clk clknet_0_clk clknet_3_6__leaf_clk VPWR VGND sg13g2_buf_8
XFILLER_42_944 VPWR VGND sg13g2_decap_8
XFILLER_41_410 VPWR VGND sg13g2_decap_8
XFILLER_13_101 VPWR VGND sg13g2_fill_2
XFILLER_41_476 VPWR VGND sg13g2_fill_1
XFILLER_41_454 VPWR VGND sg13g2_decap_8
XFILLER_9_105 VPWR VGND sg13g2_decap_8
XFILLER_10_852 VPWR VGND sg13g2_decap_8
XFILLER_6_867 VPWR VGND sg13g2_decap_8
XFILLER_5_399 VPWR VGND sg13g2_fill_2
XFILLER_3_46 VPWR VGND sg13g2_decap_8
XFILLER_1_583 VPWR VGND sg13g2_decap_8
XFILLER_18_930 VPWR VGND sg13g2_decap_8
XFILLER_36_204 VPWR VGND sg13g2_decap_8
XFILLER_37_738 VPWR VGND sg13g2_decap_8
XFILLER_36_248 VPWR VGND sg13g2_decap_8
XFILLER_36_259 VPWR VGND sg13g2_fill_1
XFILLER_33_966 VPWR VGND sg13g2_decap_8
XFILLER_34_1010 VPWR VGND sg13g2_decap_8
X_2723_ _0600_ _0593_ _0562_ _0619_ VPWR VGND sg13g2_a21o_2
XFILLER_13_690 VPWR VGND sg13g2_fill_1
X_2654_ _0552_ _0542_ _0550_ VPWR VGND sg13g2_xnor2_1
X_1605_ _0934_ _0933_ _0928_ _0937_ VPWR VGND sg13g2_a21o_1
X_2585_ _0417_ _0482_ _0484_ _0485_ VPWR VGND sg13g2_or3_1
X_1536_ VGND VPWR _0870_ _0858_ _0856_ sg13g2_or2_1
XFILLER_41_1025 VPWR VGND sg13g2_decap_4
X_3206_ net529 VGND VPWR net148 mac1.sum_lvl1_ff\[85\] clknet_leaf_4_clk sg13g2_dfrbpq_1
X_3137_ net543 VGND VPWR net81 mac1.sum_lvl1_ff\[44\] clknet_leaf_25_clk sg13g2_dfrbpq_1
XFILLER_27_204 VPWR VGND sg13g2_fill_2
XFILLER_27_226 VPWR VGND sg13g2_decap_8
XFILLER_28_738 VPWR VGND sg13g2_decap_8
XFILLER_24_922 VPWR VGND sg13g2_decap_8
X_3068_ net535 VGND VPWR _0121_ DP_2.matrix\[39\] clknet_leaf_22_clk sg13g2_dfrbpq_1
XFILLER_36_782 VPWR VGND sg13g2_fill_2
X_2019_ _0031_ _1311_ net182 VPWR VGND sg13g2_xnor2_1
XFILLER_24_999 VPWR VGND sg13g2_decap_8
XFILLER_12_55 VPWR VGND sg13g2_decap_4
XFILLER_3_815 VPWR VGND sg13g2_decap_8
Xhold160 mac1.sum_lvl3_ff\[23\] VPWR VGND net200 sg13g2_dlygate4sd3_1
Xhold171 DP_1.matrix\[42\] VPWR VGND net211 sg13g2_dlygate4sd3_1
Xhold193 _1331_ VPWR VGND net233 sg13g2_dlygate4sd3_1
Xhold182 _0111_ VPWR VGND net222 sg13g2_dlygate4sd3_1
XFILLER_46_579 VPWR VGND sg13g2_decap_8
XFILLER_15_900 VPWR VGND sg13g2_decap_8
XFILLER_42_774 VPWR VGND sg13g2_fill_1
XFILLER_14_454 VPWR VGND sg13g2_decap_4
XFILLER_15_977 VPWR VGND sg13g2_decap_8
XFILLER_30_969 VPWR VGND sg13g2_decap_8
XFILLER_6_664 VPWR VGND sg13g2_decap_8
X_2370_ _0278_ _0269_ _0280_ VPWR VGND sg13g2_xor2_1
XFILLER_2_881 VPWR VGND sg13g2_decap_8
XFILLER_49_340 VPWR VGND sg13g2_decap_8
XFILLER_49_384 VPWR VGND sg13g2_decap_8
XFILLER_37_513 VPWR VGND sg13g2_decap_8
XFILLER_18_771 VPWR VGND sg13g2_decap_8
XFILLER_37_568 VPWR VGND sg13g2_decap_8
XFILLER_21_903 VPWR VGND sg13g2_decap_8
XFILLER_33_752 VPWR VGND sg13g2_decap_8
XFILLER_20_446 VPWR VGND sg13g2_decap_8
XFILLER_32_295 VPWR VGND sg13g2_decap_4
X_2706_ _0601_ _0592_ _0603_ VPWR VGND sg13g2_xor2_1
X_2637_ _0488_ VPWR _0536_ VGND _0449_ _0489_ sg13g2_o21ai_1
X_2568_ net479 net477 net438 _0468_ VPWR VGND net434 sg13g2_nand4_1
XFILLER_0_818 VPWR VGND sg13g2_decap_8
X_1519_ _0846_ _0848_ _0854_ VPWR VGND sg13g2_nor2_1
X_2499_ _0398_ _0399_ _0393_ _0401_ VPWR VGND sg13g2_nand3_1
XFILLER_28_579 VPWR VGND sg13g2_decap_4
XFILLER_11_402 VPWR VGND sg13g2_decap_8
XFILLER_11_413 VPWR VGND sg13g2_fill_1
XFILLER_12_947 VPWR VGND sg13g2_decap_8
XFILLER_8_907 VPWR VGND sg13g2_decap_8
XFILLER_23_284 VPWR VGND sg13g2_decap_8
XFILLER_3_612 VPWR VGND sg13g2_decap_8
XFILLER_2_122 VPWR VGND sg13g2_decap_4
XFILLER_3_689 VPWR VGND sg13g2_decap_8
XFILLER_24_1020 VPWR VGND sg13g2_decap_8
XFILLER_47_822 VPWR VGND sg13g2_decap_8
Xfanout481 net483 net481 VPWR VGND sg13g2_buf_8
Xfanout470 net205 net470 VPWR VGND sg13g2_buf_8
Xfanout492 net194 net492 VPWR VGND sg13g2_buf_8
XFILLER_0_14 VPWR VGND sg13g2_decap_8
XFILLER_19_546 VPWR VGND sg13g2_decap_8
XFILLER_47_899 VPWR VGND sg13g2_decap_8
XFILLER_46_398 VPWR VGND sg13g2_decap_8
XFILLER_42_582 VPWR VGND sg13g2_decap_8
XFILLER_9_45 VPWR VGND sg13g2_fill_1
X_1870_ VGND VPWR _1171_ _1175_ _1195_ _1170_ sg13g2_a21oi_1
XFILLER_31_1013 VPWR VGND sg13g2_decap_8
XFILLER_7_973 VPWR VGND sg13g2_decap_8
X_2422_ _0330_ _0305_ _0329_ VPWR VGND sg13g2_xnor2_1
X_2353_ _0049_ _0262_ _0263_ VPWR VGND sg13g2_xnor2_1
X_2284_ _0197_ _0160_ _0195_ VPWR VGND sg13g2_nand2_1
XFILLER_21_744 VPWR VGND sg13g2_fill_2
XFILLER_21_777 VPWR VGND sg13g2_decap_8
X_1999_ mac1.sum_lvl3_ff\[6\] net261 _1298_ VPWR VGND sg13g2_and2_1
XFILLER_0_615 VPWR VGND sg13g2_decap_8
XFILLER_29_811 VPWR VGND sg13g2_fill_2
XFILLER_18_32 VPWR VGND sg13g2_decap_8
XFILLER_18_65 VPWR VGND sg13g2_fill_2
XFILLER_29_899 VPWR VGND sg13g2_decap_8
XFILLER_16_538 VPWR VGND sg13g2_decap_8
XFILLER_43_368 VPWR VGND sg13g2_fill_2
XFILLER_34_20 VPWR VGND sg13g2_decap_4
XFILLER_24_582 VPWR VGND sg13g2_decap_8
XFILLER_8_704 VPWR VGND sg13g2_decap_8
XFILLER_15_1019 VPWR VGND sg13g2_decap_8
XFILLER_24_593 VPWR VGND sg13g2_fill_1
XFILLER_12_777 VPWR VGND sg13g2_decap_8
XFILLER_7_247 VPWR VGND sg13g2_fill_2
XFILLER_7_236 VPWR VGND sg13g2_decap_8
XFILLER_4_910 VPWR VGND sg13g2_decap_8
XFILLER_4_987 VPWR VGND sg13g2_decap_8
XFILLER_19_310 VPWR VGND sg13g2_decap_8
XFILLER_34_357 VPWR VGND sg13g2_fill_1
XFILLER_43_880 VPWR VGND sg13g2_decap_8
X_2971_ net499 _0082_ VPWR VGND sg13g2_buf_1
XFILLER_42_390 VPWR VGND sg13g2_decap_8
X_1922_ VGND VPWR _1235_ _1237_ _1238_ _1236_ sg13g2_a21oi_1
X_1853_ _1178_ net465 net494 VPWR VGND sg13g2_nand2_1
XFILLER_7_770 VPWR VGND sg13g2_decap_8
X_1784_ VGND VPWR _1032_ _1075_ _1112_ _1074_ sg13g2_a21oi_1
X_2405_ VGND VPWR _0290_ _0293_ _0314_ _0289_ sg13g2_a21oi_1
XFILLER_29_118 VPWR VGND sg13g2_decap_8
X_2336_ _0247_ net446 net382 VPWR VGND sg13g2_nand2_2
X_2267_ _0180_ _0175_ _0179_ VPWR VGND sg13g2_xnor2_1
XFILLER_38_630 VPWR VGND sg13g2_fill_1
X_2198_ _1478_ _1477_ _0055_ VPWR VGND sg13g2_xor2_1
XFILLER_38_1008 VPWR VGND sg13g2_decap_8
XFILLER_34_891 VPWR VGND sg13g2_decap_8
XFILLER_21_596 VPWR VGND sg13g2_fill_1
XFILLER_4_239 VPWR VGND sg13g2_decap_8
XFILLER_20_11 VPWR VGND sg13g2_decap_8
XFILLER_0_412 VPWR VGND sg13g2_decap_8
XFILLER_1_968 VPWR VGND sg13g2_decap_8
Xhold20 mac1.sum_lvl1_ff\[4\] VPWR VGND net60 sg13g2_dlygate4sd3_1
XFILLER_0_489 VPWR VGND sg13g2_decap_8
Xhold31 mac1.sum_lvl1_ff\[83\] VPWR VGND net71 sg13g2_dlygate4sd3_1
Xhold64 mac1.sum_lvl1_ff\[39\] VPWR VGND net104 sg13g2_dlygate4sd3_1
Xhold53 mac1.sum_lvl1_ff\[44\] VPWR VGND net93 sg13g2_dlygate4sd3_1
Xhold42 mac1.products_ff\[78\] VPWR VGND net82 sg13g2_dlygate4sd3_1
XFILLER_21_1001 VPWR VGND sg13g2_decap_8
XFILLER_29_64 VPWR VGND sg13g2_fill_2
XFILLER_29_86 VPWR VGND sg13g2_fill_2
Xhold86 mac1.sum_lvl1_ff\[75\] VPWR VGND net126 sg13g2_dlygate4sd3_1
Xhold75 mac1.sum_lvl2_ff\[40\] VPWR VGND net115 sg13g2_dlygate4sd3_1
Xhold97 mac1.products_ff\[68\] VPWR VGND net137 sg13g2_dlygate4sd3_1
XFILLER_44_611 VPWR VGND sg13g2_decap_8
XFILLER_28_173 VPWR VGND sg13g2_decap_4
XFILLER_45_74 VPWR VGND sg13g2_decap_8
XFILLER_43_176 VPWR VGND sg13g2_fill_1
XFILLER_40_883 VPWR VGND sg13g2_decap_8
XFILLER_8_534 VPWR VGND sg13g2_fill_1
XFILLER_12_585 VPWR VGND sg13g2_decap_4
XFILLER_4_784 VPWR VGND sg13g2_decap_8
XFILLER_6_1028 VPWR VGND sg13g2_fill_1
X_3170_ net542 VGND VPWR net77 mac1.sum_lvl2_ff\[28\] clknet_leaf_24_clk sg13g2_dfrbpq_1
X_2121_ _1403_ _1404_ _1405_ VPWR VGND sg13g2_and2_1
XFILLER_13_4 VPWR VGND sg13g2_decap_8
XFILLER_48_961 VPWR VGND sg13g2_decap_8
X_2052_ _1340_ net392 net457 net454 net397 VPWR VGND sg13g2_a22oi_1
XFILLER_47_493 VPWR VGND sg13g2_fill_1
XFILLER_22_305 VPWR VGND sg13g2_fill_1
XFILLER_15_390 VPWR VGND sg13g2_decap_8
X_2954_ _0832_ VPWR _0111_ VGND net374 _0831_ sg13g2_o21ai_1
X_2885_ _0775_ _0765_ net372 VPWR VGND sg13g2_nand2_1
X_1905_ _1225_ net235 net161 VPWR VGND sg13g2_nand2_1
XFILLER_31_894 VPWR VGND sg13g2_decap_8
X_1836_ VGND VPWR _1162_ _1161_ _1149_ sg13g2_or2_1
X_1767_ net408 net407 net463 net460 _1095_ VPWR VGND sg13g2_and4_1
X_1698_ VGND VPWR _1024_ _1025_ _1028_ _0990_ sg13g2_a21oi_1
X_2319_ _0231_ _0230_ _0229_ VPWR VGND sg13g2_nand2b_1
Xheichips25_template_33 VPWR VGND uio_oe[0] sg13g2_tiehi
XFILLER_26_600 VPWR VGND sg13g2_decap_8
XFILLER_26_655 VPWR VGND sg13g2_decap_8
XFILLER_14_817 VPWR VGND sg13g2_decap_4
XFILLER_15_11 VPWR VGND sg13g2_decap_4
XFILLER_26_688 VPWR VGND sg13g2_decap_8
XFILLER_40_102 VPWR VGND sg13g2_decap_8
XFILLER_13_349 VPWR VGND sg13g2_decap_8
XFILLER_15_77 VPWR VGND sg13g2_decap_8
XFILLER_21_393 VPWR VGND sg13g2_decap_8
Xoutput32 net32 uo_out[7] VPWR VGND sg13g2_buf_1
Xoutput21 net21 uio_out[4] VPWR VGND sg13g2_buf_1
XFILLER_1_765 VPWR VGND sg13g2_decap_8
XFILLER_48_202 VPWR VGND sg13g2_decap_8
XFILLER_49_769 VPWR VGND sg13g2_decap_8
XFILLER_36_408 VPWR VGND sg13g2_decap_8
XFILLER_48_279 VPWR VGND sg13g2_decap_8
XFILLER_45_942 VPWR VGND sg13g2_decap_8
XFILLER_16_154 VPWR VGND sg13g2_fill_1
XFILLER_31_113 VPWR VGND sg13g2_decap_8
XFILLER_40_680 VPWR VGND sg13g2_fill_2
XFILLER_13_883 VPWR VGND sg13g2_decap_8
X_2670_ _0568_ _0553_ _0567_ VPWR VGND sg13g2_nand2_1
XFILLER_9_865 VPWR VGND sg13g2_decap_8
XFILLER_8_386 VPWR VGND sg13g2_decap_8
X_1621_ net473 net403 net474 _0952_ VPWR VGND net402 sg13g2_nand4_1
X_1552_ _0865_ _0885_ _0886_ VPWR VGND sg13g2_nor2_1
XFILLER_28_1007 VPWR VGND sg13g2_decap_8
X_3222_ net523 VGND VPWR net142 mac1.sum_lvl3_ff\[33\] clknet_leaf_5_clk sg13g2_dfrbpq_1
X_3153_ net542 VGND VPWR net86 mac1.sum_lvl2_ff\[8\] clknet_leaf_24_clk sg13g2_dfrbpq_1
XFILLER_39_224 VPWR VGND sg13g2_fill_1
X_2104_ _1386_ _1383_ _1388_ VPWR VGND sg13g2_xor2_1
XFILLER_28_909 VPWR VGND sg13g2_decap_8
X_3084_ net525 VGND VPWR _0045_ mac1.products_ff\[71\] clknet_leaf_27_clk sg13g2_dfrbpq_1
XFILLER_47_290 VPWR VGND sg13g2_decap_8
X_2035_ net292 VPWR _1328_ VGND _1325_ _1327_ sg13g2_o21ai_1
XFILLER_36_942 VPWR VGND sg13g2_decap_8
XFILLER_22_102 VPWR VGND sg13g2_decap_8
XFILLER_22_113 VPWR VGND sg13g2_fill_1
XFILLER_22_135 VPWR VGND sg13g2_fill_2
X_2937_ _0750_ _0740_ _0822_ VPWR VGND sg13g2_xor2_1
X_2868_ _0758_ net443 _0732_ VPWR VGND sg13g2_nand2_1
X_2799_ _0692_ _0678_ _0693_ VPWR VGND sg13g2_xor2_1
X_1819_ _1132_ _1127_ _1134_ _1145_ VPWR VGND sg13g2_a21o_1
XFILLER_46_706 VPWR VGND sg13g2_decap_8
XFILLER_26_21 VPWR VGND sg13g2_decap_8
XFILLER_26_430 VPWR VGND sg13g2_fill_1
XFILLER_27_953 VPWR VGND sg13g2_decap_8
XFILLER_42_923 VPWR VGND sg13g2_decap_8
XFILLER_26_463 VPWR VGND sg13g2_decap_8
XFILLER_26_474 VPWR VGND sg13g2_fill_1
XFILLER_22_680 VPWR VGND sg13g2_decap_8
XFILLER_10_831 VPWR VGND sg13g2_decap_8
XFILLER_6_846 VPWR VGND sg13g2_decap_8
XFILLER_3_36 VPWR VGND sg13g2_fill_1
XFILLER_3_25 VPWR VGND sg13g2_decap_8
XFILLER_1_562 VPWR VGND sg13g2_decap_8
XFILLER_49_566 VPWR VGND sg13g2_decap_8
XFILLER_49_599 VPWR VGND sg13g2_decap_4
XFILLER_37_717 VPWR VGND sg13g2_decap_8
XFILLER_17_430 VPWR VGND sg13g2_fill_2
XFILLER_17_463 VPWR VGND sg13g2_decap_8
XFILLER_18_986 VPWR VGND sg13g2_decap_8
XFILLER_17_485 VPWR VGND sg13g2_fill_2
XFILLER_33_945 VPWR VGND sg13g2_decap_8
XFILLER_13_680 VPWR VGND sg13g2_decap_4
X_2722_ _0602_ VPWR _0618_ VGND _0591_ _0603_ sg13g2_o21ai_1
XFILLER_9_673 VPWR VGND sg13g2_decap_8
X_2653_ _0542_ _0550_ _0551_ VPWR VGND sg13g2_nor2_1
X_1604_ _0933_ _0934_ _0928_ _0936_ VPWR VGND sg13g2_nand3_1
X_2584_ VGND VPWR _0480_ _0481_ _0484_ _0450_ sg13g2_a21oi_1
X_1535_ _0866_ _0868_ _0869_ VPWR VGND sg13g2_nor2b_1
XFILLER_41_1004 VPWR VGND sg13g2_decap_8
X_3205_ net522 VGND VPWR net107 mac1.sum_lvl1_ff\[84\] clknet_leaf_4_clk sg13g2_dfrbpq_1
XFILLER_28_706 VPWR VGND sg13g2_decap_4
X_3136_ net536 VGND VPWR net43 mac1.sum_lvl1_ff\[43\] clknet_leaf_24_clk sg13g2_dfrbpq_1
XFILLER_28_717 VPWR VGND sg13g2_decap_8
X_3067_ net527 VGND VPWR _0120_ DP_2.matrix\[38\] clknet_leaf_22_clk sg13g2_dfrbpq_1
X_2018_ net182 VPWR _1314_ VGND _1307_ _1309_ sg13g2_o21ai_1
XFILLER_24_901 VPWR VGND sg13g2_decap_8
XFILLER_36_750 VPWR VGND sg13g2_decap_4
XFILLER_24_978 VPWR VGND sg13g2_decap_8
XFILLER_35_293 VPWR VGND sg13g2_decap_4
XFILLER_10_105 VPWR VGND sg13g2_fill_2
XFILLER_11_639 VPWR VGND sg13g2_decap_8
XFILLER_23_499 VPWR VGND sg13g2_decap_8
XFILLER_6_109 VPWR VGND sg13g2_decap_8
XFILLER_12_78 VPWR VGND sg13g2_decap_8
Xhold150 DP_2.matrix\[74\] VPWR VGND net190 sg13g2_dlygate4sd3_1
Xhold161 _1291_ VPWR VGND net201 sg13g2_dlygate4sd3_1
Xhold183 DP_2.matrix\[2\] VPWR VGND net223 sg13g2_dlygate4sd3_1
Xhold194 _0020_ VPWR VGND net234 sg13g2_dlygate4sd3_1
Xhold172 DP_1.matrix\[39\] VPWR VGND net212 sg13g2_dlygate4sd3_1
XFILLER_46_536 VPWR VGND sg13g2_decap_8
XFILLER_27_761 VPWR VGND sg13g2_fill_2
XFILLER_27_772 VPWR VGND sg13g2_decap_8
XFILLER_26_260 VPWR VGND sg13g2_fill_1
XFILLER_42_742 VPWR VGND sg13g2_fill_1
XFILLER_41_230 VPWR VGND sg13g2_decap_8
XFILLER_15_956 VPWR VGND sg13g2_decap_8
XFILLER_18_1028 VPWR VGND sg13g2_fill_1
XFILLER_41_274 VPWR VGND sg13g2_decap_8
XFILLER_14_488 VPWR VGND sg13g2_decap_8
XFILLER_30_948 VPWR VGND sg13g2_decap_8
XFILLER_10_661 VPWR VGND sg13g2_decap_4
XFILLER_6_610 VPWR VGND sg13g2_decap_8
XFILLER_10_683 VPWR VGND sg13g2_fill_1
XFILLER_6_643 VPWR VGND sg13g2_decap_8
XFILLER_5_197 VPWR VGND sg13g2_decap_8
XFILLER_2_860 VPWR VGND sg13g2_decap_8
XFILLER_32_241 VPWR VGND sg13g2_decap_8
XFILLER_33_742 VPWR VGND sg13g2_fill_2
XFILLER_21_959 VPWR VGND sg13g2_decap_8
X_2705_ _0602_ _0592_ _0601_ VPWR VGND sg13g2_nand2b_1
XFILLER_9_481 VPWR VGND sg13g2_decap_8
X_2636_ _0533_ _0534_ _0535_ VPWR VGND sg13g2_and2_1
X_2567_ net438 net480 net477 net434 _0467_ VPWR VGND sg13g2_and4_1
X_1518_ _0853_ net474 net408 VPWR VGND sg13g2_nand2_1
X_2498_ _0400_ _0393_ _0398_ _0399_ VPWR VGND sg13g2_and3_1
XFILLER_28_558 VPWR VGND sg13g2_decap_8
X_3119_ net536 VGND VPWR net87 mac1.sum_lvl1_ff\[6\] clknet_leaf_29_clk sg13g2_dfrbpq_1
XFILLER_43_539 VPWR VGND sg13g2_decap_8
XFILLER_24_731 VPWR VGND sg13g2_decap_8
XFILLER_36_580 VPWR VGND sg13g2_decap_8
XFILLER_24_742 VPWR VGND sg13g2_fill_2
XFILLER_12_926 VPWR VGND sg13g2_decap_8
XFILLER_23_11 VPWR VGND sg13g2_decap_8
XFILLER_11_436 VPWR VGND sg13g2_fill_1
XFILLER_7_429 VPWR VGND sg13g2_fill_1
XFILLER_20_981 VPWR VGND sg13g2_decap_8
XFILLER_3_668 VPWR VGND sg13g2_decap_8
XFILLER_2_156 VPWR VGND sg13g2_decap_8
XFILLER_48_63 VPWR VGND sg13g2_fill_1
Xfanout482 net483 net482 VPWR VGND sg13g2_buf_8